

        *** GPGPU-Sim Simulator Version 4.0.0  [build gpgpu-sim_git-commit-ea4ab366b6736907abcbb7194c885c3127d60864_modified_11.0] ***


GPGPU-Sim PTX: simulation mode 0 (can change with PTX_SIM_MODE_FUNC environment variable:
               1=functional simulation only, 0=detailed performance simulator)
GPGPU-Sim PTX: overriding embedded ptx with ptx file (PTX_SIM_USE_PTX_FILE is set)
GPGPU-Sim: Configuration options:

-save_embedded_ptx                      0 # saves ptx files embedded in binary as <n>.ptx
-keep                                   0 # keep intermediate files created by GPGPU-Sim when interfacing with external programs
-gpgpu_ptx_save_converted_ptxplus                    0 # Saved converted ptxplus to a file
-gpgpu_occupancy_sm_number                   70 # The SM number to pass to ptxas when getting register usage for computing GPU occupancy. This parameter is required in the config.
-ptx_opcode_latency_int      4,13,4,5,145,21 # Opcode latencies for integers <ADD,MAX,MUL,MAD,DIV,SHFL>Default 1,1,19,25,145,32
-ptx_opcode_latency_fp          4,13,4,5,39 # Opcode latencies for single precision floating points <ADD,MAX,MUL,MAD,DIV>Default 1,1,1,1,30
-ptx_opcode_latency_dp         8,19,8,8,330 # Opcode latencies for double precision floating points <ADD,MAX,MUL,MAD,DIV>Default 8,8,8,8,335
-ptx_opcode_latency_sfu                  100 # Opcode latencies for SFU instructionsDefault 8
-ptx_opcode_latency_tesnor                   64 # Opcode latencies for Tensor instructionsDefault 64
-ptx_opcode_initiation_int          2,2,2,2,8,4 # Opcode initiation intervals for integers <ADD,MAX,MUL,MAD,DIV,SHFL>Default 1,1,4,4,32,4
-ptx_opcode_initiation_fp            2,2,2,2,4 # Opcode initiation intervals for single precision floating points <ADD,MAX,MUL,MAD,DIV>Default 1,1,1,1,5
-ptx_opcode_initiation_dp          4,4,4,4,130 # Opcode initiation intervals for double precision floating points <ADD,MAX,MUL,MAD,DIV>Default 8,8,8,8,130
-ptx_opcode_initiation_sfu                    8 # Opcode initiation intervals for sfu instructionsDefault 8
-ptx_opcode_initiation_tensor                   64 # Opcode initiation intervals for tensor instructionsDefault 64
-cdp_latency         7200,8000,100,12000,1600 # CDP API latency <cudaStreamCreateWithFlags, cudaGetParameterBufferV2_init_perWarp, cudaGetParameterBufferV2_perKernel, cudaLaunchDeviceV2_init_perWarp, cudaLaunchDevicV2_perKernel>Default 7200,8000,100,12000,1600
-network_mode                           2 # Interconnection network mode
-inter_config_file                   mesh # Interconnection network config file
-icnt_in_buffer_limit                  512 # in_buffer_limit
-icnt_out_buffer_limit                  512 # out_buffer_limit
-icnt_subnets                           2 # subnets
-icnt_arbiter_algo                      1 # arbiter_algo
-icnt_verbose                           0 # inct_verbose
-icnt_grant_cycles                      1 # grant_cycles
-gpgpu_ptx_use_cuobjdump                    1 # Use cuobjdump to extract ptx and sass from binaries
-gpgpu_experimental_lib_support                    0 # Try to extract code from cuda libraries [Broken because of unknown cudaGetExportTable]
-checkpoint_option                      0 #  checkpointing flag (0 = no checkpoint)
-checkpoint_kernel                      1 #  checkpointing during execution of which kernel (1- 1st kernel)
-checkpoint_CTA                         0 #  checkpointing after # of CTA (< less than total CTA)
-resume_option                          0 #  resume flag (0 = no resume)
-resume_kernel                          0 #  Resume from which kernel (1= 1st kernel)
-resume_CTA                             0 #  resume from which CTA 
-checkpoint_CTA_t                       0 #  resume from which CTA 
-checkpoint_insn_Y                      0 #  resume from which CTA 
-gpgpu_ptx_convert_to_ptxplus                    0 # Convert SASS (native ISA) to ptxplus and run ptxplus
-gpgpu_ptx_force_max_capability                   70 # Force maximum compute capability
-gpgpu_ptx_inst_debug_to_file                    0 # Dump executed instructions' debug information to file
-gpgpu_ptx_inst_debug_file       inst_debug.txt # Executed instructions' debug output file
-gpgpu_ptx_inst_debug_thread_uid                    1 # Thread UID for executed instructions' debug output
-gpgpu_simd_model                       1 # 1 = post-dominator
-gpgpu_shader_core_pipeline              2048:32 # shader core pipeline config, i.e., {<nthread>:<warpsize>}
-gpgpu_tex_cache:l1  N:4:128:256,L:R:m:N:L,T:512:8,128:2 # per-shader L1 texture cache  (READ-ONLY) config  {<nsets>:<bsize>:<assoc>,<rep>:<wr>:<alloc>:<wr_alloc>,<mshr>:<N>:<merge>,<mq>:<rf>}
-gpgpu_const_cache:l1 N:128:64:8,L:R:f:N:L,S:2:64,4 # per-shader L1 constant memory cache  (READ-ONLY) config  {<nsets>:<bsize>:<assoc>,<rep>:<wr>:<alloc>:<wr_alloc>,<mshr>:<N>:<merge>,<mq>} 
-gpgpu_cache:il1     N:64:128:16,L:R:f:N:L,S:2:48,4 # shader L1 instruction cache config  {<nsets>:<bsize>:<assoc>,<rep>:<wr>:<alloc>:<wr_alloc>,<mshr>:<N>:<merge>,<mq>} 
-gpgpu_cache:dl1     S:1:128:256,L:L:s:N:L,A:256:8,16:0,32 # per-shader L1 data cache config  {<nsets>:<bsize>:<assoc>,<rep>:<wr>:<alloc>:<wr_alloc>,<mshr>:<N>:<merge>,<mq> | none}
-gpgpu_l1_banks                         4 # The number of L1 cache banks
-gpgpu_l1_banks_byte_interleaving                   32 # l1 banks byte interleaving granularity
-gpgpu_l1_banks_hashing_function                    0 # l1 banks hashing function
-gpgpu_l1_latency                      20 # L1 Hit Latency
-gpgpu_smem_latency                    20 # smem Latency
-gpgpu_cache:dl1PrefL1                 none # per-shader L1 data cache config  {<nsets>:<bsize>:<assoc>,<rep>:<wr>:<alloc>:<wr_alloc>,<mshr>:<N>:<merge>,<mq> | none}
-gpgpu_cache:dl1PrefShared                 none # per-shader L1 data cache config  {<nsets>:<bsize>:<assoc>,<rep>:<wr>:<alloc>:<wr_alloc>,<mshr>:<N>:<merge>,<mq> | none}
-gpgpu_gmem_skip_L1D                    0 # global memory access skip L1D cache (implements -Xptxas -dlcm=cg, default=no skip)
-gpgpu_perfect_mem                      0 # enable perfect memory mode (no cache miss)
-n_regfile_gating_group                    4 # group of lanes that should be read/written together)
-gpgpu_clock_gated_reg_file                    0 # enable clock gated reg file for power calculations
-gpgpu_clock_gated_lanes                    0 # enable clock gated lanes for power calculations
-gpgpu_shader_registers                65536 # Number of registers per shader core. Limits number of concurrent CTAs. (default 8192)
-gpgpu_registers_per_block                65536 # Maximum number of registers per CTA. (default 8192)
-gpgpu_ignore_resources_limitation                    0 # gpgpu_ignore_resources_limitation (default 0)
-gpgpu_shader_cta                      32 # Maximum number of concurrent CTAs in shader (default 8)
-gpgpu_num_cta_barriers                   16 # Maximum number of named barriers per CTA (default 16)
-gpgpu_n_clusters                      80 # number of processing clusters
-gpgpu_n_cores_per_cluster                    1 # number of simd cores per cluster
-gpgpu_n_cluster_ejection_buffer_size                   32 # number of packets in ejection buffer
-gpgpu_n_ldst_response_buffer_size                    2 # number of response packets in ld/st unit ejection buffer
-gpgpu_shmem_per_block                65536 # Size of shared memory per thread block or CTA (default 48kB)
-gpgpu_shmem_size                   98304 # Size of shared memory per shader core (default 16kB)
-gpgpu_adaptive_cache_config                    1 # adaptive_cache_config
-gpgpu_shmem_sizeDefault                98304 # Size of shared memory per shader core (default 16kB)
-gpgpu_shmem_size_PrefL1                16384 # Size of shared memory per shader core (default 16kB)
-gpgpu_shmem_size_PrefShared                16384 # Size of shared memory per shader core (default 16kB)
-gpgpu_shmem_num_banks                   32 # Number of banks in the shared memory in each shader core (default 16)
-gpgpu_shmem_limited_broadcast                    0 # Limit shared memory to do one broadcast per cycle (default on)
-gpgpu_shmem_warp_parts                    1 # Number of portions a warp is divided into for shared memory bank conflict check 
-gpgpu_mem_unit_ports                    1 # The number of memory transactions allowed per core cycle
-gpgpu_shmem_warp_parts                    1 # Number of portions a warp is divided into for shared memory bank conflict check 
-gpgpu_warpdistro_shader                   -1 # Specify which shader core to collect the warp size distribution from
-gpgpu_warp_issue_shader                    0 # Specify which shader core to collect the warp issue distribution from
-gpgpu_local_mem_map                    1 # Mapping from local memory space address to simulated GPU physical address space (default = enabled)
-gpgpu_num_reg_banks                   16 # Number of register banks (default = 8)
-gpgpu_reg_bank_use_warp_id                    0 # Use warp ID in mapping registers to banks (default = off)
-gpgpu_sub_core_model                    1 # Sub Core Volta/Pascal model (default = off)
-gpgpu_enable_specialized_operand_collector                    0 # enable_specialized_operand_collector
-gpgpu_operand_collector_num_units_sp                    4 # number of collector units (default = 4)
-gpgpu_operand_collector_num_units_dp                    0 # number of collector units (default = 0)
-gpgpu_operand_collector_num_units_sfu                    4 # number of collector units (default = 4)
-gpgpu_operand_collector_num_units_int                    0 # number of collector units (default = 0)
-gpgpu_operand_collector_num_units_tensor_core                    4 # number of collector units (default = 4)
-gpgpu_operand_collector_num_units_mem                    2 # number of collector units (default = 2)
-gpgpu_operand_collector_num_units_gen                    8 # number of collector units (default = 0)
-gpgpu_operand_collector_num_in_ports_sp                    1 # number of collector unit in ports (default = 1)
-gpgpu_operand_collector_num_in_ports_dp                    0 # number of collector unit in ports (default = 0)
-gpgpu_operand_collector_num_in_ports_sfu                    1 # number of collector unit in ports (default = 1)
-gpgpu_operand_collector_num_in_ports_int                    0 # number of collector unit in ports (default = 0)
-gpgpu_operand_collector_num_in_ports_tensor_core                    1 # number of collector unit in ports (default = 1)
-gpgpu_operand_collector_num_in_ports_mem                    1 # number of collector unit in ports (default = 1)
-gpgpu_operand_collector_num_in_ports_gen                    8 # number of collector unit in ports (default = 0)
-gpgpu_operand_collector_num_out_ports_sp                    1 # number of collector unit in ports (default = 1)
-gpgpu_operand_collector_num_out_ports_dp                    0 # number of collector unit in ports (default = 0)
-gpgpu_operand_collector_num_out_ports_sfu                    1 # number of collector unit in ports (default = 1)
-gpgpu_operand_collector_num_out_ports_int                    0 # number of collector unit in ports (default = 0)
-gpgpu_operand_collector_num_out_ports_tensor_core                    1 # number of collector unit in ports (default = 1)
-gpgpu_operand_collector_num_out_ports_mem                    1 # number of collector unit in ports (default = 1)
-gpgpu_operand_collector_num_out_ports_gen                    8 # number of collector unit in ports (default = 0)
-gpgpu_coalesce_arch                   60 # Coalescing arch (GT200 = 13, Fermi = 20)
-gpgpu_num_sched_per_core                    4 # Number of warp schedulers per core
-gpgpu_max_insn_issue_per_warp                    1 # Max number of instructions that can be issued per warp in one cycle by scheduler (either 1 or 2)
-gpgpu_dual_issue_diff_exec_units                    1 # should dual issue use two different execution unit resources (Default = 1)
-gpgpu_simt_core_sim_order                    1 # Select the simulation order of cores in a cluster (0=Fix, 1=Round-Robin)
-gpgpu_pipeline_widths 4,4,4,4,4,4,4,4,4,4,8,4,4 # Pipeline widths ID_OC_SP,ID_OC_DP,ID_OC_INT,ID_OC_SFU,ID_OC_MEM,OC_EX_SP,OC_EX_DP,OC_EX_INT,OC_EX_SFU,OC_EX_MEM,EX_WB,ID_OC_TENSOR_CORE,OC_EX_TENSOR_CORE
-gpgpu_tensor_core_avail                    1 # Tensor Core Available (default=0)
-gpgpu_num_sp_units                     4 # Number of SP units (default=1)
-gpgpu_num_dp_units                     4 # Number of DP units (default=0)
-gpgpu_num_int_units                    4 # Number of INT units (default=0)
-gpgpu_num_sfu_units                    4 # Number of SF units (default=1)
-gpgpu_num_tensor_core_units                    4 # Number of tensor_core units (default=1)
-gpgpu_num_mem_units                    1 # Number if ldst units (default=1) WARNING: not hooked up to anything
-gpgpu_scheduler                      gto # Scheduler configuration: < lrr | gto | two_level_active > If two_level_active:<num_active_warps>:<inner_prioritization>:<outer_prioritization>For complete list of prioritization values see shader.h enum scheduler_prioritization_typeDefault: gto
-gpgpu_concurrent_kernel_sm                    0 # Support concurrent kernels on a SM (default = disabled)
-gpgpu_perfect_inst_const_cache                    1 # perfect inst and const cache mode, so all inst and const hits in the cache(default = disabled)
-gpgpu_inst_fetch_throughput                    4 # the number of fetched intruction per warp each cycle
-gpgpu_reg_file_port_throughput                    2 # the number ports of the register file
-specialized_unit_1         0,4,4,4,4,BRA # specialized unit config {<enabled>,<num_units>:<latency>:<initiation>,<ID_OC_SPEC>:<OC_EX_SPEC>,<NAME>}
-specialized_unit_2         0,4,4,4,4,BRA # specialized unit config {<enabled>,<num_units>:<latency>:<initiation>,<ID_OC_SPEC>:<OC_EX_SPEC>,<NAME>}
-specialized_unit_3         0,4,4,4,4,BRA # specialized unit config {<enabled>,<num_units>:<latency>:<initiation>,<ID_OC_SPEC>:<OC_EX_SPEC>,<NAME>}
-specialized_unit_4         0,4,4,4,4,BRA # specialized unit config {<enabled>,<num_units>:<latency>:<initiation>,<ID_OC_SPEC>:<OC_EX_SPEC>,<NAME>}
-specialized_unit_5         0,4,4,4,4,BRA # specialized unit config {<enabled>,<num_units>:<latency>:<initiation>,<ID_OC_SPEC>:<OC_EX_SPEC>,<NAME>}
-specialized_unit_6         0,4,4,4,4,BRA # specialized unit config {<enabled>,<num_units>:<latency>:<initiation>,<ID_OC_SPEC>:<OC_EX_SPEC>,<NAME>}
-specialized_unit_7         0,4,4,4,4,BRA # specialized unit config {<enabled>,<num_units>:<latency>:<initiation>,<ID_OC_SPEC>:<OC_EX_SPEC>,<NAME>}
-specialized_unit_8         0,4,4,4,4,BRA # specialized unit config {<enabled>,<num_units>:<latency>:<initiation>,<ID_OC_SPEC>:<OC_EX_SPEC>,<NAME>}
-gpgpu_perf_sim_memcpy                    1 # Fill the L2 cache on memcpy
-gpgpu_simple_dram_model                    0 # simple_dram_model with fixed latency and BW
-gpgpu_dram_scheduler                    1 # 0 = fifo, 1 = FR-FCFS (defaul)
-gpgpu_dram_partition_queues          64:64:64:64 # i2$:$2d:d2$:$2i
-l2_ideal                               0 # Use a ideal L2 cache that always hit
-gpgpu_cache:dl2     S:32:128:24,L:B:m:L:P,A:192:4,32:0,32 # unified banked L2 data cache config  {<nsets>:<bsize>:<assoc>,<rep>:<wr>:<alloc>:<wr_alloc>,<mshr>:<N>:<merge>,<mq>}
-gpgpu_cache:huffman_metadata N:16:128:4,L:B:m:W:L,A:256:4,32:0,32 # huffman metadata cache config  {<nsets>:<bsize>:<assoc>,<rep>:<wr>:<alloc>:<wr_alloc>,<mshr>:<N>:<merge>,<mq>}
-gpgpu_cache:dl2_texture_only                    0 # L2 cache used for texture only
-gpgpu_n_mem                           32 # number of memory modules (e.g. memory controllers) in gpu
-gpgpu_n_sub_partition_per_mchannel                    2 # number of memory subpartition in each memory module
-gpgpu_n_mem_per_ctrlr                    1 # number of memory chips per memory controller
-gpgpu_memlatency_stat                   14 # track and display latency statistics 0x2 enables MC, 0x4 enables queue logs
-gpgpu_frfcfs_dram_sched_queue_size                   64 # 0 = unlimited (default); # entries per chip
-gpgpu_dram_return_queue_size                  192 # 0 = unlimited (default); # entries per chip
-gpgpu_dram_buswidth                   16 # default = 4 bytes (8 bytes per cycle at DDR)
-gpgpu_dram_burst_length                    2 # Burst length of each DRAM request (default = 4 data bus cycle)
-dram_data_command_freq_ratio                    2 # Frequency ratio between DRAM data bus and command bus (default = 2 times, i.e. DDR)
-gpgpu_dram_timing_opt nbk=16:CCD=1:RRD=3:RCD071a4179b9f6e5f418889279018aa7c7  /home/wf6711/ece575/ECE575-ComputerArch-Project/gpu-app-collection/bin/11.8/release/lavaMD-rodinia-3.1
Extracting PTX file and ptxas options    1: lavaMD-rodinia-3.1.sm_60.ptx -arch=sm_60
Extracting PTX file and ptxas options    2: lavaMD-rodinia-3.2.sm_62.ptx -arch=sm_62
Extracting PTX file and ptxas options    3: lavaMD-rodinia-3.3.sm_70.ptx -arch=sm_70
Extracting PTX file and ptxas options    4: lavaMD-rodinia-3.4.sm_75.ptx -arch=sm_75
Extracting PTX file and ptxas options    5: lavaMD-rodinia-3.5.sm_60.ptx -arch=sm_60
=12:RAS=28:RP=12:RC=40: CL=12:WL=2:CDLR=3:WR=10:nbkgrp=4:CCDL=2:RTPL=3 # DRAM timing parameters = {nbk:tCCD:tRRD:tRCD:tRAS:tRP:tRC:CL:WL:tCDLR:tWR:nbkgrp:tCCDL:tRTPL}
-gpgpu_l2_rop_latency                  160 # ROP queue latency (default 85)
-dram_latency                         100 # DRAM latency (default 30)
-dram_dual_bus_interface                    1 # dual_bus_interface (default = 0) 
-dram_bnk_indexing_policy                    0 # dram_bnk_indexing_policy (0 = normal indexing, 1 = Xoring with the higher bits) (Default = 0)
-dram_bnkgrp_indexing_policy                    1 # dram_bnkgrp_indexing_policy (0 = take higher bits, 1 = take lower bits) (Default = 0)
-dram_seperate_write_queue_enable                    0 # Seperate_Write_Queue_Enable
-dram_write_queue_size             32:28:16 # Write_Queue_Size
-dram_elimnate_rw_turnaround                    0 # elimnate_rw_turnaround i.e set tWTR and tRTW = 0
-icnt_flit_size                        40 # icnt_flit_size
-gpgpu_mem_addr_mapping dramid@8;00000000.00000000.00000000.00000000.0000RRRR.RRRRRRRR.RBBBCCCB.CCCSSSSS # mapping memory address to dram model {dramid@<start bit>;<memory address map>}
-gpgpu_mem_addr_test                    0 # run sweep test to check address mapping for aliased address
-gpgpu_mem_address_mask                    1 # 0 = old addressing mask, 1 = new addressing mask, 2 = new add. mask + flipped bank sel and chip sel bits
-gpgpu_memory_partition_indexing                    2 # 0 = no indexing, 1 = bitwise xoring, 2 = IPoly, 3 = custom indexing
-gpuwattch_xml_file         gpuwattch.xml # GPUWattch XML file
-power_simulation_enabled                    0 # Turn on power simulator (1=On, 0=Off)
-power_per_cycle_dump                    0 # Dump detailed power output each cycle
-power_trace_enabled                    0 # produce a file for the power trace (1=On, 0=Off)
-power_trace_zlevel                     6 # Compression level of the power trace output log (0=no comp, 9=highest)
-steady_power_levels_enabled                    0 # produce a file for the steady power levels (1=On, 0=Off)
-steady_state_definition                  8:4 # allowed deviation:number of samples
-gpgpu_max_cycle                        0 # terminates gpu simulation early (0 = no limit)
-gpgpu_max_insn                2000000000 # terminates gpu simulation early (0 = no limit)
-gpgpu_max_cta                          0 # terminates gpu simulation early (0 = no limit)
-gpgpu_max_completed_cta                    0 # terminates gpu simulation early (0 = no limit)
-gpgpu_runtime_stat                   500 # display runtime statistics such as dram utilization {<freq>:<flag>}
-liveness_message_freq                    1 # Minimum number of seconds between simulation liveness messages (0 = always print)
-gpgpu_compute_capability_major                    7 # Major compute capability version number
-gpgpu_compute_capability_minor                    0 # Minor compute capability version number
-gpgpu_flush_l1_cache                    1 # Flush L1 cache at the end of each kernel call
-gpgpu_flush_l2_cache                    0 # Flush L2 cache at the end of each kernel call
-gpgpu_deadlock_detect                    1 # Stop the simulation at deadlock (1=on (default), 0=off)
-gpgpu_ptx_instruction_classification                    0 # if enabled will classify ptx instruction types per kernel (Max 255 kernels now)
-gpgpu_ptx_sim_mode                     0 # Select between Performance (default) or Functional simulation (1)
-gpgpu_clock_domains 1132.0:1132.0:1132.0:850.0 # Clock Domain Frequencies in MhZ {<Core Clock>:<ICNT Clock>:<L2 Clock>:<DRAM Clock>}
-gpgpu_max_concurrent_kernel                    8 # maximum kernels that can run concurrently on GPU
-gpgpu_cflog_interval                    0 # Interval between each snapshot in control flow logger
-visualizer_enabled                     0 # Turn on visualizer output (1=On, 0=Off)
-visualizer_outputfile                 NULL # Specifies the output log file for visualizer
-visualizer_zlevel                      6 # Compression level of the visualizer output log (0=no comp, 9=highest)
-gpgpu_stack_size_limit                 1024 # GPU thread stack size
-gpgpu_heap_size_limit              8388608 # GPU malloc heap size 
-gpgpu_runtime_sync_depth_limit                    2 # GPU device runtime synchronize depth
-gpgpu_runtime_pending_launch_count_limit                 2048 # GPU device runtime pending launch count
-trace_enabled                          0 # Turn on traces
-trace_components                    none # comma seperated list of traces to enable. Complete list found in trace_streams.tup. Default none
-trace_sampling_core                    0 # The core which is printed using CORE_DPRINTF. Default 0
-trace_sampling_memory_partition                   -1 # The memory partition which is printed using MEMPART_DPRINTF. Default -1 (i.e. all)
-enable_ptx_file_line_stats                    1 # Turn on PTX source line statistic profiling. (1 = On)
-ptx_line_stats_filename gpgpu_inst_stats.txt # Output file for PTX source line statistics.
-gpgpu_kernel_launch_latency                 5000 # Kernel launch latency in cycles. Default: 0
-gpgpu_cdp_enabled                      0 # Turn on CDP
-gpgpu_TB_launch_latency                    0 # thread block launch latency in cycles. Default: 0
DRAM Timing Options:
nbk                                    16 # number of banks
CCD                                     1 # column to column delay
RRD                                     3 # minimal delay between activation of rows in different banks
RCD                                    12 # row to column delay
RAS                                    28 # time needed to activate row
RP                                     12 # time needed to precharge (deactivate) row
RC                                     40 # row cycle time
CDLR                                    3 # switching from write to read (changes tWTR)
WR                                     10 # last data-in to row precharge
CL                                     12 # CAS latency
WL                                      2 # Write latency
nbkgrp                                  4 # number of bank groups
CCDL                                    2 # column to column delay between accesses to different bank groups
RTPL                                    3 # read to precharge delay between accesses to different bank groups
Total number of memory sub partition = 64
addr_dec_mask[CHIP]  = 0000000000001f00 	high:13 low:8
addr_dec_mask[BK]    = 00000000000e2000 	high:20 low:13
addr_dec_mask[ROW]   = 00000001fff00000 	high:33 low:20
addr_dec_mask[COL]   = 000000000001c0ff 	high:17 low:0
addr_dec_mask[BURST] = 000000000000001f 	high:5 low:0
sub_partition_id_mask = 0000000000002000
GPGPU-Sim uArch: clock freqs: 1132000000.000000:1132000000.000000:1132000000.000000:850000000.000000
GPGPU-Sim uArch: clock periods: 0.00000000088339222615:0.00000000088339222615:0.00000000088339222615:0.00000000117647058824
*** Initializing Memory Statistics ***
GPGPU-Sim uArch: performance model initialization complete.
self exe links to: /home/wf6711/ece575/ECE575-ComputerArch-Project/gpu-app-collection/bin/11.8/release/lavaMD-rodinia-3.1
self exe links to: /home/wf6711/ece575/ECE575-ComputerArch-Project/gpu-app-collection/bin/11.8/release/lavaMD-rodinia-3.1
11.0
GPGPU-Sim PTX: __cudaRegisterFatBinary, fat_cubin_handle = 1, filename=default
self exe links to: /home/wf6711/ece575/ECE575-ComputerArch-Project/gpu-app-collection/bin/11.8/release/lavaMD-rodinia-3.1
Running md5sum using "md5sum /home/wf6711/ece575/ECE575-ComputerArch-Project/gpu-app-collection/bin/11.8/release/lavaMD-rodinia-3.1 "
self exe links to: /home/wf6711/ece575/ECE575-ComputerArch-Project/gpu-app-collection/bin/11.8/release/lavaMD-rodinia-3.1
Extracting specific PTX file named lavaMD-rodinia-3.1.sm_60.ptx 
Extracting specific PTX file named lavaMD-rodinia-3.2.sm_62.ptx 
Extracting specific PTX file named lavaMD-rodinia-3.3.sm_70.ptx 
Extracting specific PTX file named lavaMD-rodinia-3.4.sm_75.ptx 
Extracting specific PTX file named lavaMD-rodinia-3.5.sm_60.ptx 
Extracting specific PTX Extracting PTX file and ptxas options    6: lavaMD-rodinia-3.6.sm_62.ptx -arch=sm_62
Extracting PTX file and ptxas options    7: lavaMD-rodinia-3.7.sm_70.ptx -arch=sm_70
Extracting PTX file and ptxas options    8: lavaMD-rodinia-3.8.sm_75.ptx -arch=sm_75
file named lavaMD-rodinia-3.6.sm_62.ptx 
Extracting specific PTX file named lavaMD-rodinia-3.7.sm_70.ptx 
Extracting specific PTX file named lavaMD-rodinia-3.8.sm_75.ptx 
GPGPU-Sim PTX: __cudaRegisterFunction _Z15kernel_gpu_cuda7par_str7dim_strP7box_strP11FOUR_VECTORPdS4_ : hostFun 0x0x401ce0, fat_cubin_handle = 1
GPGPU-Sim PTX: Parsing lavaMD-rodinia-3.1.sm_60.ptx
GPGPU-Sim PTX: allocating shared region for "_ZZ15kernel_gpu_cuda7par_str7dim_strP7box_strP11FOUR_VECTORPdS4_E9rA_shared" from 0x0 to 0xc80 (shared memory space)
GPGPU-Sim PTX: allocating shared region for "_ZZ15kernel_gpu_cuda7par_str7dim_strP7box_strP11FOUR_VECTORPdS4_E9rB_shared" from 0xc80 to 0x1900 (shared memory space)
GPGPU-Sim PTX: allocating shared region for "_ZZ15kernel_gpu_cuda7par_str7dim_strP7box_strP11FOUR_VECTORPdS4_E9qB_shared" from 0x1900 to 0x1c20 (shared memory space)
GPGPU-Sim PTX: Warning -- ignoring pragma 'nounroll'
GPGPU-Sim PTX: instruction assembly for function '_Z15kernel_gpu_cuda7par_str7dim_strP7box_strP11FOUR_VECTORPdS4_'...   done.
GPGPU-Sim PTX: finished parsing EMBEDDED .ptx file lavaMD-rodinia-3.1.sm_60.ptx
GPGPU-Sim PTX: Parsing lavaMD-rodinia-3.5.sm_60.ptx
GPGPU-Sim PTX: finished parsing EMBEDDED .ptx file lavaMD-rodinia-3.5.sm_60.ptx
GPGPU-Sim PTX: Parsing lavaMD-rodinia-3.2.sm_62.ptx
GPGPU-Sim PTX: Warning %p0 was declared previous at lavaMD-rodinia-3.1.sm_60.ptx:27 skipping new declaration
GPGPU-Sim PTX: Warning %p1 was declared previous at lavaMD-rodinia-3.1.sm_60.ptx:27 skipping new declaration
GPGPU-Sim PTX: Warning %p2 was declared previous at lavaMD-rodinia-3.1.sm_60.ptx:27 skipping new declaration
GPGPU-Sim PTX: Warning %p3 was declared previous at lavaMD-rodinia-3.1.sm_60.ptx:27 skipping new declaration
GPGPU-Sim PTX: Warning %p4 was declared previous at lavaMD-rodinia-3.1.sm_60.ptx:27 skipping new declaration
GPGPU-Sim PTX: Warning %p5 was declared previous at lavaMD-rodinia-3.1.sm_60.ptx:27 skipping new declaration
GPGPU-Sim PTX: Warning %p6 was declared previous at lavaMD-rodinia-3.1.sm_60.ptx:27 skipping new declaration
GPGPU-Sim PTX: Warning %p7 was declared previous at lavaMD-rodinia-3.1.sm_60.ptx:27 skipping new declaration
GPGPU-Sim PTX: Warning %p8 was declared previous at lavaMD-rodinia-3.1.sm_60.ptx:27 skipping new declaration
GPGPU-Sim PTX: Warning %p9 was declared previous at lavaMD-rodinia-3.1.sm_60.ptx:27 skipping new declaration
GPGPU-Sim PTX: Warning %p10 was declared previous at lavaMD-rodinia-3.1.sm_60.ptx:27 skipping new declaration
GPGPU-Sim PTX: Warning %p11 was declared previous at lavaMD-rodinia-3.1.sm_60.ptx:27 skipping new declaration
GPGPU-Sim PTX: Warning %p12 was declared previous at lavaMD-rodinia-3.1.sm_60.ptx:27 skipping new declaration
GPGPU-Sim PTX: Warning %p13 was declared previous at lavaMD-rodinia-3.1.sm_60.ptx:27 skipping new declaration
GPGPU-Sim PTX: Warning %p14 was declared previous at lavaMD-rodinia-3.1.sm_60.ptx:27 skipping new declaration
GPGPU-Sim PTX: Warning %p15 was declared previous at lavaMD-rodinia-3.1.sm_60.ptx:27 skipping new declaration
GPGPU-Sim PTX: Warning %p16 was declared previous at lavaMD-rodinia-3.1.sm_60.ptx:27 skipping new declaration
GPGPU-Sim PTX: Warning %p17 was declared previous at lavaMD-rodinia-3.1.sm_60.ptx:27 skipping new declaration
GPGPU-Sim PTX: Warning %p18 was declared previous at lavaMD-rodinia-3.1.sm_60.ptx:27 skipping new declaration
GPGPU-Sim PTX: Warning %p19 was declared previous at lavaMD-rodinia-3.1.sm_60.ptx:27 skipping new declaration
GPGPU-Sim PTX: Warning %p20 was declared previous at lavaMD-rodinia-3.1.sm_60.ptx:27 skipping new declaration
GPGPU-Sim PTX: Warning %p21 was declared previous at lavaMD-rodinia-3.1.sm_60.ptx:27 skipping new declaration
GPGPU-Sim PTX: Warning %p22 was declared previous at lavaMD-rodinia-3.1.sm_60.ptx:27 skipping new declaration
GPGPU-Sim PTX: Warning %p23 was declared previous at lavaMD-rodinia-3.1.sm_60.ptx:27 skipping new declaration
GPGPU-Sim PTX: Warning %p24 was declared previous at lavaMD-rodinia-3.1.sm_60.ptx:27 skipping new declaration
GPGPU-Sim PTX: Warning %f0 was declared previous at lavaMD-rodinia-3.1.sm_60.ptx:28 skipping new declaration
GPGPU-Sim PTX: Warning %f1 was declared previous at lavaMD-rodinia-3.1.sm_60.ptx:28 skipping new declaration
GPGPU-Sim PTX: Warning %f2 was declared previous at lavaMD-rodinia-3.1.sm_60.ptx:28 skipping new declaration
GPGPU-Sim PTX: Warning %f3 was declared previous at lavaMD-rodinia-3.1.sm_60.ptx:28 skipping new declaration
GPGPU-Sim PTX: Warning %f4 was declared previous at lavaMD-rodinia-3.1.sm_60.ptx:28 skipping new declaration
GPGPU-Sim PTX: Warning %r0 was declared previous at lavaMD-rodinia-3.1.sm_60.ptx:29 skipping new declaration
GPGPU-Sim PTX: Warning %r1 was declared previous at lavaMD-rodinia-3.1.sm_60.ptx:29 skipping new declaration
GPGPU-Sim PTX: Warning %r2 was declared previous at lavaMD-rodinia-3.1.sm_60.ptx:29 skipping new declaration
GPGPU-Sim PTX: Warning %r3 was declared previous at lavaMD-rodinia-3.1.sm_60.ptx:29 skipping new declaration
GPGPU-Sim PTX: Warning %r4 was declared previous at lavaMD-rodinia-3.1.sm_60.ptx:29 skipping new declaration
GPGPU-Sim PTX: Warning %r5 was declared previous at lavaMD-rodinia-3.1.sm_60.ptx:29 skipping new declaration
GPGPU-Sim PTX: Warning %r6 was declared previous at lavaMD-rodinia-3.1.sm_60.ptx:29 skipping new declaration
GPGPU-Sim PTX: Warning %r7 was declared previous at lavaMD-rodinia-3.1.sm_60.ptx:29 skipping new declaration
GPGPU-Sim PTX: Warning %r8 was declared previous at lavaMD-rodinia-3.1.sm_60.ptx:29 skipping new declaration
GPGPU-Sim PTX: Warning %r9 was declared previous at lavaMD-rodinia-3.1.sm_60.ptx:29 skipping new declaration
GPGPU-Sim PTX: Warning %r10 was declared previous at lavaMD-rodinia-3.1.sm_60.ptx:29 skipping new declaration
GPGPU-Sim PTX: Warning %r11 was declared previous at lavaMD-rodinia-3.1.sm_60.ptx:29 skipping new declaration
GPGPU-Sim PTX: Warning %r12 was declared previous at lavaMD-rodinia-3.1.sm_60.ptx:29 skipping new declaration
GPGPU-Sim PTX: Warning %r13 was declared previous at lavaMD-rodinia-3.1.sm_60.ptx:29 skipping new declaration
GPGPU-Sim PTX: Warning %r14 was declared previous at lavaMD-rodinia-3.1.sm_60.ptx:29 skipping new declaration
GPGPU-Sim PTX: Warning %r15 was declared previous at lavaMD-rodinia-3.1.sm_60.ptx:29 skipping new declaration
GPGPU-Sim PTX: Warning %r16 was declared previous at lavaMD-rodinia-3.1.sm_60.ptx:29 skipping new declaration
GPGPU-Sim PTX: Warning %r17 was declared previous at lavaMD-rodinia-3.1.sm_60.ptx:29 skipping new declaration
GPGPU-Sim PTX: Warning %r18 was declared previous at lavaMD-rodinia-3.1.sm_60.ptx:29 skipping new declaration
GPGPU-Sim PTX: Warning %r19 was declared previous at lavaMD-rodinia-3.1.sm_60.ptx:29 skipping new declaration
GPGPU-Sim PTX: Warning %r20 was declared previous at lavaMD-rodinia-3.1.sm_60.ptx:29 skipping new declaration
GPGPU-Sim PTX: Warning %r21 was declared previous at lavaMD-rodinia-3.1.sm_60.ptx:29 skipping new declaration
GPGPU-Sim PTX: Warning %r22 was declared previous at lavaMD-rodinia-3.1.sm_60.ptx:29 skipping new declaration
GPGPU-Sim PTX: Warning %r23 was declared previous at lavaMD-rodinia-3.1.sm_60.ptx:29 skipping new declaration
GPGPU-Sim PTX: Warning %r24 was declared previous at lavaMD-rodinia-3.1.sm_60.ptx:29 skipping new declaration
GPGPU-Sim PTX: Warning %r25 was declared previous at lavaMD-rodinia-3.1.sm_60.ptx:29 skipping new declaration
GPGPU-Sim PTX: Warning %r26 was declared previous at lavaMD-rodinia-3.1.sm_60.ptx:29 skipping new declaration
GPGPU-Sim PTX: Warning %r27 was declared previous at lavaMD-rodinia-3.1.sm_60.ptx:29 skipping new declaration
GPGPU-Sim PTX: Warning %r28 was declared previous at lavaMD-rodinia-3.1.sm_60.ptx:29 skipping new declaration
GPGPU-Sim PTX: Warning %r29 was declared previous at lavaMD-rodinia-3.1.sm_60.ptx:29 skipping new declaration
GPGPU-Sim PTX: Warning %r30 was declared previous at lavaMD-rodinia-3.1.sm_60.ptx:29 skipping new declaration
GPGPU-Sim PTX: Warning %r31 was declared previous at lavaMD-rodinia-3.1.sm_60.ptx:29 skipping new declaration
GPGPU-Sim PTX: Warning %r32 was declared previous at lavaMD-rodinia-3.1.sm_60.ptx:29 skipping new declaration
GPGPU-Sim PTX: Warning %r33 was declared previous at lavaMD-rodinia-3.1.sm_60.ptx:29 skipping new declaration
GPGPU-Sim PTX: Warning %r34 was declared previous at lavaMD-rodinia-3.1.sm_60.ptx:29 skipping new declaration
GPGPU-Sim PTX: Warning %r35 was declared previous at lavaMD-rodinia-3.1.sm_60.ptx:29 skipping new declaration
GPGPU-Sim PTX: Warning %r36 was declared previous at lavaMD-rodinia-3.1.sm_60.ptx:29 skipping new declaration
GPGPU-Sim PTX: Warning %r37 was declared previous at lavaMD-rodinia-3.1.sm_60.ptx:29 skipping new declaration
GPGPU-Sim PTX: Warning %r38 was declared previous at lavaMD-rodinia-3.1.sm_60.ptx:29 skipping new declaration
GPGPU-Sim PTX: Warning %r39 was declared previous at lavaMD-rodinia-3.1.sm_60.ptx:29 skipping new declaration
GPGPU-Sim PTX: Warning %r40 was declared previous at lavaMD-rodinia-3.1.sm_60.ptx:29 skipping new declaration
GPGPU-Sim PTX: Warning %r41 was declared previous at lavaMD-rodinia-3.1.sm_60.ptx:29 skipping new declaration
GPGPU-Sim PTX: Warning %r42 was declared previous at lavaMD-rodinia-3.1.sm_60.ptx:29 skipping new declaration
GPGPU-Sim PTX: Warning %r43 was declared previous at lavaMD-rodinia-3.1.sm_60.ptx:29 skipping new declaration
GPGPU-Sim PTX: Warning %r44 was declared previous at lavaMD-rodinia-3.1.sm_60.ptx:29 skipping new declaration
GPGPU-Sim PTX: Warning %r45 was declared previous at lavaMD-rodinia-3.1.sm_60.ptx:29 skipping new declaration
GPGPU-Sim PTX: Warning %r46 was declared previous at lavaMD-rodinia-3.1.sm_60.ptx:29 skipping new declaration
GPGPU-Sim PTX: Warning %r47 was declared previous at lavaMD-rodinia-3.1.sm_60.ptx:29 skipping new declaration
GPGPU-Sim PTX: Warning %r48 was declared previous at lavaMD-rodinia-3.1.sm_60.ptx:29 skipping new declaration
GPGPU-Sim PTX: Warning %r49 was declared previous at lavaMD-rodinia-3.1.sm_60.ptx:29 skipping new declaration
GPGPU-Sim PTX: Warning %r50 was declared previous at lavaMD-rodinia-3.1.sm_60.ptx:29 skipping new declaration
GPGPU-Sim PTX: Warning %r51 was declared previous at lavaMD-rodinia-3.1.sm_60.ptx:29 skipping new declaration
GPGPU-Sim PTX: Warning %r52 was declared previous at lavaMD-rodinia-3.1.sm_60.ptx:29 skipping new declaration
GPGPU-Sim PTX: Warning %r53 was declared previous at lavaMD-rodinia-3.1.sm_60.ptx:29 skipping new declaration
GPGPU-Sim PTX: Warning %r54 was declared previous at lavaMD-rodinia-3.1.sm_60.ptx:29 skipping new declaration
GPGPU-Sim PTX: Warning %r55 was declared previous at lavaMD-rodinia-3.1.sm_60.ptx:29 skipping new declaration
GPGPU-Sim PTX: Warning %r56 was declared previous at lavaMD-rodinia-3.1.sm_60.ptx:29 skipping new declaration
GPGPU-Sim PTX: Warning %r57 was declared previous at lavaMD-rodinia-3.1.sm_60.ptx:29 skipping new declaration
GPGPU-Sim PTX: Warning %r58 was declared previous at lavaMD-rodinia-3.1.sm_60.ptx:29 skipping new declaration
GPGPU-Sim PTX: Warning %r59 was declared previous at lavaMD-rodinia-3.1.sm_60.ptx:29 skipping new declaration
GPGPU-Sim PTX: Warning %r60 was declared previous at lavaMD-rodinia-3.1.sm_60.ptx:29 skipping new declaration
GPGPU-Sim PTX: Warning %r61 was declared previous at lavaMD-rodinia-3.1.sm_60.ptx:29 skipping new declaration
GPGPU-Sim PTX: Warning %r62 was declared previous at lavaMD-rodinia-3.1.sm_60.ptx:29 skipping new declaration
GPGPU-Sim PTX: Warning %r63 was declared previous at lavaMD-rodinia-3.1.sm_60.ptx:29 skipping new declaration
GPGPU-Sim PTX: Warning %r64 was declared previous at lavaMD-rodinia-3.1.sm_60.ptx:29 skipping new declaration
GPGPU-Sim PTX: Warning %r65 was declared previous at lavaMD-rodinia-3.1.sm_60.ptx:29 skipping new declaration
GPGPU-Sim PTX: Warning %r66 was declared previous at lavaMD-rodinia-3.1.sm_60.ptx:29 skipping new declaration
GPGPU-Sim PTX: Warning %r67 was declared previous at lavaMD-rodinia-3.1.sm_60.ptx:29 skipping new declaration
GPGPU-Sim PTX: Warning %r68 was declared previous at lavaMD-rodinia-3.1.sm_60.ptx:29 skipping new declaration
GPGPU-Sim PTX: Warning %r69 was declared previous at lavaMD-rodinia-3.1.sm_60.ptx:29 skipping new declaration
GPGPU-Sim PTX: Warning %r70 was declared previous at lavaMD-rodinia-3.1.sm_60.ptx:29 skipping new declaration
GPGPU-Sim PTX: Warning %r71 was declared previous at lavaMD-rodinia-3.1.sm_60.ptx:29 skipping new declaration
GPGPU-Sim PTX: Warning %r72 was declared previous at lavaMD-rodinia-3.1.sm_60.ptx:29 skipping new declaration
GPGPU-Sim PTX: Warning %r73 was declared previous at lavaMD-rodinia-3.1.sm_60.ptx:29 skipping new declaration
GPGPU-Sim PTX: Warning %r74 was declared previous at lavaMD-rodinia-3.1.sm_60.ptx:29 skipping new declaration
GPGPU-Sim PTX: Warning %r75 was declared previous at lavaMD-rodinia-3.1.sm_60.ptx:29 skipping new declaration
GPGPU-Sim PTX: Warning %r76 was declared previous at lavaMD-rodinia-3.1.sm_60.ptx:29 skipping new declaration
GPGPU-Sim PTX: Warning %r77 was declared previous at lavaMD-rodinia-3.1.sm_60.ptx:29 skipping new declaration
GPGPU-Sim PTX: Warning %r78 was declared previous at lavaMD-rodinia-3.1.sm_60.ptx:29 skipping new declaration
GPGPU-Sim PTX: Warning %r79 was declared previous at lavaMD-rodinia-3.1.sm_60.ptx:29 skipping new declaration
GPGPU-Sim PTX: Warning %r80 was declared previous at lavaMD-rodinia-3.1.sm_60.ptx:29 skipping new declaration
GPGPU-Sim PTX: Warning %r81 was declared previous at lavaMD-rodinia-3.1.sm_60.ptx:29 skipping new declaration
GPGPU-Sim PTX: Warning %r82 was declared previous at lavaMD-rodinia-3.1.sm_60.ptx:29 skipping new declaration
GPGPU-Sim PTX: Warning %r83 was declared previous at lavaMD-rodinia-3.1.sm_60.ptx:29 skipping new declaration
GPGPU-Sim PTX: Warning %r84 was declared previous at lavaMD-rodinia-3.1.sm_60.ptx:29 skipping new declaration
GPGPU-Sim PTX: Warning %r85 was declared previous at lavaMD-rodinia-3.1.sm_60.ptx:29 skipping new declaration
GPGPU-Sim PTX: Warning %r86 was declared previous at lavaMD-rodinia-3.1.sm_60.ptx:29 skipping new declaration
GPGPU-Sim PTX: Warning %r87 was declared previous at lavaMD-rodinia-3.1.sm_60.ptx:29 skipping new declaration
GPGPU-Sim PTX: Warning %r88 was declared previous at lavaMD-rodinia-3.1.sm_60.ptx:29 skipping new declaration
GPGPU-Sim PTX: Warning %r89 was declared previous at lavaMD-rodinia-3.1.sm_60.ptx:29 skipping new declaration
GPGPU-Sim PTX: Warning %r90 was declared previous at lavaMD-rodinia-3.1.sm_60.ptx:29 skipping new declaration
GPGPU-Sim PTX: Warning %r91 was declared previous at lavaMD-rodinia-3.1.sm_60.ptx:29 skipping new declaration
GPGPU-Sim PTX: Warning %r92 was declared previous at lavaMD-rodinia-3.1.sm_60.ptx:29 skipping new declaration
GPGPU-Sim PTX: Warning %r93 was declared previous at lavaMD-rodinia-3.1.sm_60.ptx:29 skipping new declaration
GPGPU-Sim PTX: Warning %r94 was declared previous at lavaMD-rodinia-3.1.sm_60.ptx:29 skipping new declaration
GPGPU-Sim PTX: Warning %r95 was declared previous at lavaMD-rodinia-3.1.sm_60.ptx:29 skipping new declaration
GPGPU-Sim PTX: Warning %r96 was declared previous at lavaMD-rodinia-3.1.sm_60.ptx:29 skipping new declaration
GPGPU-Sim PTX: Warning %r97 was declared previous at lavaMD-rodinia-3.1.sm_60.ptx:29 skipping new declaration
GPGPU-Sim PTX: Warning %r98 was declared previous at lavaMD-rodinia-3.1.sm_60.ptx:29 skipping new declaration
GPGPU-Sim PTX: Warning %r99 was declared previous at lavaMD-rodinia-3.1.sm_60.ptx:29 skipping new declaration
GPGPU-Sim PTX: Warning %r100 was declared previous at lavaMD-rodinia-3.1.sm_60.ptx:29 skipping new declaration
GPGPU-Sim PTX: Warning %r101 was declared previous at lavaMD-rodinia-3.1.sm_60.ptx:29 skipping new declaration
GPGPU-Sim PTX: Warning %r102 was declared previous at lavaMD-rodinia-3.1.sm_60.ptx:29 skipping new declaration
GPGPU-Sim PTX: Warning %r103 was declared previous at lavaMD-rodinia-3.1.sm_60.ptx:29 skipping new declaration
GPGPU-Sim PTX: Warning %r104 was declared previous at lavaMD-rodinia-3.1.sm_60.ptx:29 skipping new declaration
GPGPU-Sim PTX: Warning %r105 was declared previous at lavaMD-rodinia-3.1.sm_60.ptx:29 skipping new declaration
GPGPU-Sim PTX: Warning %r106 was declared previous at lavaMD-rodinia-3.1.sm_60.ptx:29 skipping new declaration
GPGPU-Sim PTX: Warning %r107 was declared previous at lavaMD-rodinia-3.1.sm_60.ptx:29 skipping new declaration
GPGPU-Sim PTX: Warning %r108 was declared previous at lavaMD-rodinia-3.1.sm_60.ptx:29 skipping new declaration
GPGPU-Sim PTX: Warning %r109 was declared previous at lavaMD-rodinia-3.1.sm_60.ptx:29 skipping new declaration
GPGPU-Sim PTX: Warning %r110 was declared previous at lavaMD-rodinia-3.1.sm_60.ptx:29 skipping new declaration
GPGPU-Sim PTX: Warning %r111 was declared previous at lavaMD-rodinia-3.1.sm_60.ptx:29 skipping new declaration
GPGPU-Sim PTX: Warning %r112 was declared previous at lavaMD-rodinia-3.1.sm_60.ptx:29 skipping new declaration
GPGPU-Sim PTX: Warning %r113 was declared previous at lavaMD-rodinia-3.1.sm_60.ptx:29 skipping new declaration
GPGPU-Sim PTX: Warning %r114 was declared previous at lavaMD-rodinia-3.1.sm_60.ptx:29 skipping new declaration
GPGPU-Sim PTX: Warning %r115 was declared previous at lavaMD-rodinia-3.1.sm_60.ptx:29 skipping new declaration
GPGPU-Sim PTX: Warning %r116 was declared previous at lavaMD-rodinia-3.1.sm_60.ptx:29 skipping new declaration
GPGPU-Sim PTX: Warning %fd0 was declared previous at lavaMD-rodinia-3.1.sm_60.ptx:30 skipping new declaration
GPGPU-Sim PTX: Warning %fd1 was declared previous at lavaMD-rodinia-3.1.sm_60.ptx:30 skipping new declaration
GPGPU-Sim PTX: Warning %fd2 was declared previous at lavaMD-rodinia-3.1.sm_60.ptx:30 skipping new declaration
GPGPU-Sim PTX: Warning %fd3 was declared previous at lavaMD-rodinia-3.1.sm_60.ptx:30 skipping new declaration
GPGPU-Sim PTX: Warning %fd4 was declared previous at lavaMD-rodinia-3.1.sm_60.ptx:30 skipping new declaration
GPGPU-Sim PTX: Warning %fd5 was declared previous at lavaMD-rodinia-3.1.sm_60.ptx:30 skipping new declaration
GPGPU-Sim PTX: Warning %fd6 was declared previous at lavaMD-rodinia-3.1.sm_60.ptx:30 skipping new declaration
GPGPU-Sim PTX: Warning %fd7 was declared previous at lavaMD-rodinia-3.1.sm_60.ptx:30 skipping new declaration
GPGPU-Sim PTX: Warning %fd8 was declared previous at lavaMD-rodinia-3.1.sm_60.ptx:30 skipping new declaration
GPGPU-Sim PTX: Warning %fd9 was declared previous at lavaMD-rodinia-3.1.sm_60.ptx:30 skipping new declaration
GPGPU-Sim PTX: Warning %fd10 was declared previous at lavaMD-rodinia-3.1.sm_60.ptx:30 skipping new declaration
GPGPU-Sim PTX: Warning %fd11 was declared previous at lavaMD-rodinia-3.1.sm_60.ptx:30 skipping new declaration
GPGPU-Sim PTX: Warning %fd12 was declared previous at lavaMD-rodinia-3.1.sm_60.ptx:30 skipping new declaration
GPGPU-Sim PTX: Warning %fd13 was declared previous at lavaMD-rodinia-3.1.sm_60.ptx:30 skipping new declaration
GPGPU-Sim PTX: Warning %fd14 was declared previous at lavaMD-rodinia-3.1.sm_60.ptx:30 skipping new declaration
GPGPU-Sim PTX: Warning %fd15 was declared previous at lavaMD-rodinia-3.1.sm_60.ptx:30 skipping new declaration
GPGPU-Sim PTX: Warning %fd16 was declared previous at lavaMD-rodinia-3.1.sm_60.ptx:30 skipping new declaration
GPGPU-Sim PTX: Warning %fd17 was declared previous at lavaMD-rodinia-3.1.sm_60.ptx:30 skipping new declaration
GPGPU-Sim PTX: Warning %fd18 was declared previous at lavaMD-rodinia-3.1.sm_60.ptx:30 skipping new declaration
GPGPU-Sim PTX: Warning %fd19 was declared previous at lavaMD-rodinia-3.1.sm_60.ptx:30 skipping new declaration
GPGPU-Sim PTX: Warning %fd20 was declared previous at lavaMD-rodinia-3.1.sm_60.ptx:30 skipping new declaration
GPGPU-Sim PTX: Warning %fd21 was declared previous at lavaMD-rodinia-3.1.sm_60.ptx:30 skipping new declaration
GPGPU-Sim PTX: Warning %fd22 was declared previous at lavaMD-rodinia-3.1.sm_60.ptx:30 skipping new declaration
GPGPU-Sim PTX: Warning %fd23 was declared previous at lavaMD-rodinia-3.1.sm_60.ptx:30 skipping new declaration
GPGPU-Sim PTX: Warning %fd24 was declared previous at lavaMD-rodinia-3.1.sm_60.ptx:30 skipping new declaration
GPGPU-Sim PTX: Warning %fd25 was declared previous at lavaMD-rodinia-3.1.sm_60.ptx:30 skipping new declaration
GPGPU-Sim PTX: Warning %fd26 was declared previous at lavaMD-rodinia-3.1.sm_60.ptx:30 skipping new declaration
GPGPU-Sim PTX: Warning %fd27 was declared previous at lavaMD-rodinia-3.1.sm_60.ptx:30 skipping new declaration
GPGPU-Sim PTX: Warning %fd28 was declared previous at lavaMD-rodinia-3.1.sm_60.ptx:30 skipping new declaration
GPGPU-Sim PTX: Warning %fd29 was declared previous at lavaMD-rodinia-3.1.sm_60.ptx:30 skipping new declaration
GPGPU-Sim PTX: Warning %fd30 was declared previous at lavaMD-rodinia-3.1.sm_60.ptx:30 skipping new declaration
GPGPU-Sim PTX: Warning %fd31 was declared previous at lavaMD-rodinia-3.1.sm_60.ptx:30 skipping new declaration
GPGPU-Sim PTX: Warning %fd32 was declared previous at lavaMD-rodinia-3.1.sm_60.ptx:30 skipping new declaration
GPGPU-Sim PTX: Warning %fd33 was declared previous at lavaMD-rodinia-3.1.sm_60.ptx:30 skipping new declaration
GPGPU-Sim PTX: Warning %fd34 was declared previous at lavaMD-rodinia-3.1.sm_60.ptx:30 skipping new declaration
GPGPU-Sim PTX: Warning %fd35 was declared previous at lavaMD-rodinia-3.1.sm_60.ptx:30 skipping new declaration
GPGPU-Sim PTX: Warning %fd36 was declared previous at lavaMD-rodinia-3.1.sm_60.ptx:30 skipping new declaration
GPGPU-Sim PTX: Warning %fd37 was declared previous at lavaMD-rodinia-3.1.sm_60.ptx:30 skipping new declaration
GPGPU-Sim PTX: Warning %fd38 was declared previous at lavaMD-rodinia-3.1.sm_60.ptx:30 skipping new declaration
GPGPU-Sim PTX: Warning %fd39 was declared previous at lavaMD-rodinia-3.1.sm_60.ptx:30 skipping new declaration
GPGPU-Sim PTX: Warning %fd40 was declared previous at lavaMD-rodinia-3.1.sm_60.ptx:30 skipping new declaration
GPGPU-Sim PTX: Warning %fd41 was declared previous at lavaMD-rodinia-3.1.sm_60.ptx:30 skipping new declaration
GPGPU-Sim PTX: Warning %fd42 was declared previous at lavaMD-rodinia-3.1.sm_60.ptx:30 skipping new declaration
GPGPU-Sim PTX: Warning %fd43 was declared previous at lavaMD-rodinia-3.1.sm_60.ptx:30 skipping new declaration
GPGPU-Sim PTX: Warning %fd44 was declared previous at lavaMD-rodinia-3.1.sm_60.ptx:30 skipping new declaration
GPGPU-Sim PTX: Warning %fd45 was declared previous at lavaMD-rodinia-3.1.sm_60.ptx:30 skipping new declaration
GPGPU-Sim PTX: Warning %fd46 was declared previous at lavaMD-rodinia-3.1.sm_60.ptx:30 skipping new declaration
GPGPU-Sim PTX: Warning %fd47 was declared previous at lavaMD-rodinia-3.1.sm_60.ptx:30 skipping new declaration
GPGPU-Sim PTX: Warning %fd48 was declared previous at lavaMD-rodinia-3.1.sm_60.ptx:30 skipping new declaration
GPGPU-Sim PTX: Warning %fd49 was declared previous at lavaMD-rodinia-3.1.sm_60.ptx:30 skipping new declaration
GPGPU-Sim PTX: Warning %fd50 was declared previous at lavaMD-rodinia-3.1.sm_60.ptx:30 skipping new declaration
GPGPU-Sim PTX: Warning %fd51 was declared previous at lavaMD-rodinia-3.1.sm_60.ptx:30 skipping new declaration
GPGPU-Sim PTX: Warning %fd52 was declared previous at lavaMD-rodinia-3.1.sm_60.ptx:30 skipping new declaration
GPGPU-Sim PTX: Warning %fd53 was declared previous at lavaMD-rodinia-3.1.sm_60.ptx:30 skipping new declaration
GPGPU-Sim PTX: Warning %fd54 was declared previous at lavaMD-rodinia-3.1.sm_60.ptx:30 skipping new declaration
GPGPU-Sim PTX: Warning %fd55 was declared previous at lavaMD-rodinia-3.1.sm_60.ptx:30 skipping new declaration
GPGPU-Sim PTX: Warning %fd56 was declared previous at lavaMD-rodinia-3.1.sm_60.ptx:30 skipping new declaration
GPGPU-Sim PTX: Warning %fd57 was declared previous at lavaMD-rodinia-3.1.sm_60.ptx:30 skipping new declaration
GPGPU-Sim PTX: Warning %fd58 was declared previous at lavaMD-rodinia-3.1.sm_60.ptx:30 skipping new declaration
GPGPU-Sim PTX: Warning %fd59 was declared previous at lavaMD-rodinia-3.1.sm_60.ptx:30 skipping new declaration
GPGPU-Sim PTX: Warning %fd60 was declared previous at lavaMD-rodinia-3.1.sm_60.ptx:30 skipping new declaration
GPGPU-Sim PTX: Warning %fd61 was declared previous at lavaMD-rodinia-3.1.sm_60.ptx:30 skipping new declaration
GPGPU-Sim PTX: Warning %fd62 was declared previous at lavaMD-rodinia-3.1.sm_60.ptx:30 skipping new declaration
GPGPU-Sim PTX: Warning %fd63 was declared previous at lavaMD-rodinia-3.1.sm_60.ptx:30 skipping new declaration
GPGPU-Sim PTX: Warning %fd64 was declared previous at lavaMD-rodinia-3.1.sm_60.ptx:30 skipping new declaration
GPGPU-Sim PTX: Warning %fd65 was declared previous at lavaMD-rodinia-3.1.sm_60.ptx:30 skipping new declaration
GPGPU-Sim PTX: Warning %fd66 was declared previous at lavaMD-rodinia-3.1.sm_60.ptx:30 skipping new declaration
GPGPU-Sim PTX: Warning %fd67 was declared previous at lavaMD-rodinia-3.1.sm_60.ptx:30 skipping new declaration
GPGPU-Sim PTX: Warning %fd68 was declared previous at lavaMD-rodinia-3.1.sm_60.ptx:30 skipping new declaration
GPGPU-Sim PTX: Warning %fd69 was declared previous at lavaMD-rodinia-3.1.sm_60.ptx:30 skipping new declaration
GPGPU-Sim PTX: Warning %fd70 was declared previous at lavaMD-rodinia-3.1.sm_60.ptx:30 skipping new declaration
GPGPU-Sim PTX: Warning %fd71 was declared previous at lavaMD-rodinia-3.1.sm_60.ptx:30 skipping new declaration
GPGPU-Sim PTX: Warning %fd72 was declared previous at lavaMD-rodinia-3.1.sm_60.ptx:30 skipping new declaration
GPGPU-Sim PTX: Warning %fd73 was declared previous at lavaMD-rodinia-3.1.sm_60.ptx:30 skipping new declaration
GPGPU-Sim PTX: Warning %fd74 was declared previous at lavaMD-rodinia-3.1.sm_60.ptx:30 skipping new declaration
GPGPU-Sim PTX: Warning %fd75 was declared previous at lavaMD-rodinia-3.1.sm_60.ptx:30 skipping new declaration
GPGPU-Sim PTX: Warning %fd76 was declared previous at lavaMD-rodinia-3.1.sm_60.ptx:30 skipping new declaration
GPGPU-Sim PTX: Warning %fd77 was declared previous at lavaMD-rodinia-3.1.sm_60.ptx:30 skipping new declaration
GPGPU-Sim PTX: Warning %fd78 was declared previous at lavaMD-rodinia-3.1.sm_60.ptx:30 skipping new declaration
GPGPU-Sim PTX: Warning %fd79 was declared previous at lavaMD-rodinia-3.1.sm_60.ptx:30 skipping new declaration
GPGPU-Sim PTX: Warning %fd80 was declared previous at lavaMD-rodinia-3.1.sm_60.ptx:30 skipping new declaration
GPGPU-Sim PTX: Warning %fd81 was declared previous at lavaMD-rodinia-3.1.sm_60.ptx:30 skipping new declaration
GPGPU-Sim PTX: Warning %fd82 was declared previous at lavaMD-rodinia-3.1.sm_60.ptx:30 skipping new declaration
GPGPU-Sim PTX: Warning %fd83 was declared previous at lavaMD-rodinia-3.1.sm_60.ptx:30 skipping new declaration
GPGPU-Sim PTX: Warning %fd84 was declared previous at lavaMD-rodinia-3.1.sm_60.ptx:30 skipping new declaration
GPGPU-Sim PTX: Warning %fd85 was declared previous at lavaMD-rodinia-3.1.sm_60.ptx:30 skipping new declaration
GPGPU-Sim PTX: Warning %fd86 was declared previous at lavaMD-rodinia-3.1.sm_60.ptx:30 skipping new declaration
GPGPU-Sim PTX: Warning %fd87 was declared previous at lavaMD-rodinia-3.1.sm_60.ptx:30 skipping new declaration
GPGPU-Sim PTX: Warning %fd88 was declared previous at lavaMD-rodinia-3.1.sm_60.ptx:30 skipping new declaration
GPGPU-Sim PTX: Warning %fd89 was declared previous at lavaMD-rodinia-3.1.sm_60.ptx:30 skipping new declaration
GPGPU-Sim PTX: Warning %fd90 was declared previous at lavaMD-rodinia-3.1.sm_60.ptx:30 skipping new declaration
GPGPU-Sim PTX: Warning %fd91 was declared previous at lavaMD-rodinia-3.1.sm_60.ptx:30 skipping new declaration
GPGPU-Sim PTX: Warning %fd92 was declared previous at lavaMD-rodinia-3.1.sm_60.ptx:30 skipping new declaration
GPGPU-Sim PTX: Warning %fd93 was declared previous at lavaMD-rodinia-3.1.sm_60.ptx:30 skipping new declaration
GPGPU-Sim PTX: Warning %fd94 was declared previous at lavaMD-rodinia-3.1.sm_60.ptx:30 skipping new declaration
GPGPU-Sim PTX: Warning %fd95 was declared previous at lavaMD-rodinia-3.1.sm_60.ptx:30 skipping new declaration
GPGPU-Sim PTX: Warning %fd96 was declared previous at lavaMD-rodinia-3.1.sm_60.ptx:30 skipping new declaration
GPGPU-Sim PTX: Warning %fd97 was declared previous at lavaMD-rodinia-3.1.sm_60.ptx:30 skipping new declaration
GPGPU-Sim PTX: Warning %fd98 was declared previous at lavaMD-rodinia-3.1.sm_60.ptx:30 skipping new declaration
GPGPU-Sim PTX: Warning %fd99 was declared previous at lavaMD-rodinia-3.1.sm_60.ptx:30 skipping new declaration
GPGPU-Sim PTX: Warning %fd100 was declared previous at lavaMD-rodinia-3.1.sm_60.ptx:30 skipping new declaration
GPGPU-Sim PTX: Warning %fd101 was declared previous at lavaMD-rodinia-3.1.sm_60.ptx:30 skipping new declaration
GPGPU-Sim PTX: Warning %fd102 was declared previous at lavaMD-rodinia-3.1.sm_60.ptx:30 skipping new declaration
GPGPU-Sim PTX: Warning %fd103 was declared previous at lavaMD-rodinia-3.1.sm_60.ptx:30 skipping new declaration
GPGPU-Sim PTX: Warning %fd104 was declared previous at lavaMD-rodinia-3.1.sm_60.ptx:30 skipping new declaration
GPGPU-Sim PTX: Warning %fd105 was declared previous at lavaMD-rodinia-3.1.sm_60.ptx:30 skipping new declaration
GPGPU-Sim PTX: Warning %fd106 was declared previous at lavaMD-rodinia-3.1.sm_60.ptx:30 skipping new declaration
GPGPU-Sim PTX: Warning %fd107 was declared previous at lavaMD-rodinia-3.1.sm_60.ptx:30 skipping new declaration
GPGPU-Sim PTX: Warning %fd108 was declared previous at lavaMD-rodinia-3.1.sm_60.ptx:30 skipping new declaration
GPGPU-Sim PTX: Warning %fd109 was declared previous at lavaMD-rodinia-3.1.sm_60.ptx:30 skipping new declaration
GPGPU-Sim PTX: Warning %fd110 was declared previous at lavaMD-rodinia-3.1.sm_60.ptx:30 skipping new declaration
GPGPU-Sim PTX: Warning %fd111 was declared previous at lavaMD-rodinia-3.1.sm_60.ptx:30 skipping new declaration
GPGPU-Sim PTX: Warning %fd112 was declared previous at lavaMD-rodinia-3.1.sm_60.ptx:30 skipping new declaration
GPGPU-Sim PTX: Warning %fd113 was declared previous at lavaMD-rodinia-3.1.sm_60.ptx:30 skipping new declaration
GPGPU-Sim PTX: Warning %fd114 was declared previous at lavaMD-rodinia-3.1.sm_60.ptx:30 skipping new declaration
GPGPU-Sim PTX: Warning %fd115 was declared previous at lavaMD-rodinia-3.1.sm_60.ptx:30 skipping new declaration
GPGPU-Sim PTX: Warning %fd116 was declared previous at lavaMD-rodinia-3.1.sm_60.ptx:30 skipping new declaration
GPGPU-Sim PTX: Warning %fd117 was declared previous at lavaMD-rodinia-3.1.sm_60.ptx:30 skipping new declaration
GPGPU-Sim PTX: Warning %fd118 was declared previous at lavaMD-rodinia-3.1.sm_60.ptx:30 skipping new declaration
GPGPU-Sim PTX: Warning %fd119 was declared previous at lavaMD-rodinia-3.1.sm_60.ptx:30 skipping new declaration
GPGPU-Sim PTX: Warning %fd120 was declared previous at lavaMD-rodinia-3.1.sm_60.ptx:30 skipping new declaration
GPGPU-Sim PTX: Warning %fd121 was declared previous at lavaMD-rodinia-3.1.sm_60.ptx:30 skipping new declaration
GPGPU-Sim PTX: Warning %fd122 was declared previous at lavaMD-rodinia-3.1.sm_60.ptx:30 skipping new declaration
GPGPU-Sim PTX: Warning %fd123 was declared previous at lavaMD-rodinia-3.1.sm_60.ptx:30 skipping new declaration
GPGPU-Sim PTX: Warning %fd124 was declared previous at lavaMD-rodinia-3.1.sm_60.ptx:30 skipping new declaration
GPGPU-Sim PTX: Warning %fd125 was declared previous at lavaMD-rodinia-3.1.sm_60.ptx:30 skipping new declaration
GPGPU-Sim PTX: Warning %fd126 was declared previous at lavaMD-rodinia-3.1.sm_60.ptx:30 skipping new declaration
GPGPU-Sim PTX: Warning %fd127 was declared previous at lavaMD-rodinia-3.1.sm_60.ptx:30 skipping new declaration
GPGPU-Sim PTX: Warning %fd128 was declared previous at lavaMD-rodinia-3.1.sm_60.ptx:30 skipping new declaration
GPGPU-Sim PTX: Warning %fd129 was declared previous at lavaMD-rodinia-3.1.sm_60.ptx:30 skipping new declaration
GPGPU-Sim PTX: Warning %fd130 was declared previous at lavaMD-rodinia-3.1.sm_60.ptx:30 skipping new declaration
GPGPU-Sim PTX: Warning %fd131 was declared previous at lavaMD-rodinia-3.1.sm_60.ptx:30 skipping new declaration
GPGPU-Sim PTX: Warning %fd132 was declared previous at lavaMD-rodinia-3.1.sm_60.ptx:30 skipping new declaration
GPGPU-Sim PTX: Warning %fd133 was declared previous at lavaMD-rodinia-3.1.sm_60.ptx:30 skipping new declaration
GPGPU-Sim PTX: Warning %fd134 was declared previous at lavaMD-rodinia-3.1.sm_60.ptx:30 skipping new declaration
GPGPU-Sim PTX: Warning %fd135 was declared previous at lavaMD-rodinia-3.1.sm_60.ptx:30 skipping new declaration
GPGPU-Sim PTX: Warning %fd136 was declared previous at lavaMD-rodinia-3.1.sm_60.ptx:30 skipping new declaration
GPGPU-Sim PTX: Warning %fd137 was declared previous at lavaMD-rodinia-3.1.sm_60.ptx:30 skipping new declaration
GPGPU-Sim PTX: Warning %fd138 was declared previous at lavaMD-rodinia-3.1.sm_60.ptx:30 skipping new declaration
GPGPU-Sim PTX: Warning %fd139 was declared previous at lavaMD-rodinia-3.1.sm_60.ptx:30 skipping new declaration
GPGPU-Sim PTX: Warning %fd140 was declared previous at lavaMD-rodinia-3.1.sm_60.ptx:30 skipping new declaration
GPGPU-Sim PTX: Warning %fd141 was declared previous at lavaMD-rodinia-3.1.sm_60.ptx:30 skipping new declaration
GPGPU-Sim PTX: Warning %fd142 was declared previous at lavaMD-rodinia-3.1.sm_60.ptx:30 skipping new declaration
GPGPU-Sim PTX: Warning %fd143 was declared previous at lavaMD-rodinia-3.1.sm_60.ptx:30 skipping new declaration
GPGPU-Sim PTX: Warning %fd144 was declared previous at lavaMD-rodinia-3.1.sm_60.ptx:30 skipping new declaration
GPGPU-Sim PTX: Warning %fd145 was declared previous at lavaMD-rodinia-3.1.sm_60.ptx:30 skipping new declaration
GPGPU-Sim PTX: Warning %fd146 was declared previous at lavaMD-rodinia-3.1.sm_60.ptx:30 skipping new declaration
GPGPU-Sim PTX: Warning %fd147 was declared previous at lavaMD-rodinia-3.1.sm_60.ptx:30 skipping new declaration
GPGPU-Sim PTX: Warning %fd148 was declared previous at lavaMD-rodinia-3.1.sm_60.ptx:30 skipping new declaration
GPGPU-Sim PTX: Warning %fd149 was declared previous at lavaMD-rodinia-3.1.sm_60.ptx:30 skipping new declaration
GPGPU-Sim PTX: Warning %fd150 was declared previous at lavaMD-rodinia-3.1.sm_60.ptx:30 skipping new declaration
GPGPU-Sim PTX: Warning %fd151 was declared previous at lavaMD-rodinia-3.1.sm_60.ptx:30 skipping new declaration
GPGPU-Sim PTX: Warning %fd152 was declared previous at lavaMD-rodinia-3.1.sm_60.ptx:30 skipping new declaration
GPGPU-Sim PTX: Warning %fd153 was declared previous at lavaMD-rodinia-3.1.sm_60.ptx:30 skipping new declaration
GPGPU-Sim PTX: Warning %fd154 was declared previous at lavaMD-rodinia-3.1.sm_60.ptx:30 skipping new declaration
GPGPU-Sim PTX: Warning %fd155 was declared previous at lavaMD-rodinia-3.1.sm_60.ptx:30 skipping new declaration
GPGPU-Sim PTX: Warning %fd156 was declared previous at lavaMD-rodinia-3.1.sm_60.ptx:30 skipping new declaration
GPGPU-Sim PTX: Warning %fd157 was declared previous at lavaMD-rodinia-3.1.sm_60.ptx:30 skipping new declaration
GPGPU-Sim PTX: Warning %fd158 was declared previous at lavaMD-rodinia-3.1.sm_60.ptx:30 skipping new declaration
GPGPU-Sim PTX: Warning %fd159 was declared previous at lavaMD-rodinia-3.1.sm_60.ptx:30 skipping new declaration
GPGPU-Sim PTX: Warning %fd160 was declared previous at lavaMD-rodinia-3.1.sm_60.ptx:30 skipping new declaration
GPGPU-Sim PTX: Warning %fd161 was declared previous at lavaMD-rodinia-3.1.sm_60.ptx:30 skipping new declaration
GPGPU-Sim PTX: Warning %fd162 was declared previous at lavaMD-rodinia-3.1.sm_60.ptx:30 skipping new declaration
GPGPU-Sim PTX: Warning %fd163 was declared previous at lavaMD-rodinia-3.1.sm_60.ptx:30 skipping new declaration
GPGPU-Sim PTX: Warning %fd164 was declared previous at lavaMD-rodinia-3.1.sm_60.ptx:30 skipping new declaration
GPGPU-Sim PTX: Warning %fd165 was declared previous at lavaMD-rodinia-3.1.sm_60.ptx:30 skipping new declaration
GPGPU-Sim PTX: Warning %fd166 was declared previous at lavaMD-rodinia-3.1.sm_60.ptx:30 skipping new declaration
GPGPU-Sim PTX: Warning %fd167 was declared previous at lavaMD-rodinia-3.1.sm_60.ptx:30 skipping new declaration
GPGPU-Sim PTX: Warning %fd168 was declared previous at lavaMD-rodinia-3.1.sm_60.ptx:30 skipping new declaration
GPGPU-Sim PTX: Warning %fd169 was declared previous at lavaMD-rodinia-3.1.sm_60.ptx:30 skipping new declaration
GPGPU-Sim PTX: Warning %fd170 was declared previous at lavaMD-rodinia-3.1.sm_60.ptx:30 skipping new declaration
GPGPU-Sim PTX: Warning %fd171 was declared previous at lavaMD-rodinia-3.1.sm_60.ptx:30 skipping new declaration
GPGPU-Sim PTX: Warning %fd172 was declared previous at lavaMD-rodinia-3.1.sm_60.ptx:30 skipping new declaration
GPGPU-Sim PTX: Warning %fd173 was declared previous at lavaMD-rodinia-3.1.sm_60.ptx:30 skipping new declaration
GPGPU-Sim PTX: Warning %fd174 was declared previous at lavaMD-rodinia-3.1.sm_60.ptx:30 skipping new declaration
GPGPU-Sim PTX: Warning %fd175 was declared previous at lavaMD-rodinia-3.1.sm_60.ptx:30 skipping new declaration
GPGPU-Sim PTX: Warning %fd176 was declared previous at lavaMD-rodinia-3.1.sm_60.ptx:30 skipping new declaration
GPGPU-Sim PTX: Warning %fd177 was declared previous at lavaMD-rodinia-3.1.sm_60.ptx:30 skipping new declaration
GPGPU-Sim PTX: Warning %fd178 was declared previous at lavaMD-rodinia-3.1.sm_60.ptx:30 skipping new declaration
GPGPU-Sim PTX: Warning %fd179 was declared previous at lavaMD-rodinia-3.1.sm_60.ptx:30 skipping new declaration
GPGPU-Sim PTX: Warning %fd180 was declared previous at lavaMD-rodinia-3.1.sm_60.ptx:30 skipping new declaration
GPGPU-Sim PTX: Warning %fd181 was declared previous at lavaMD-rodinia-3.1.sm_60.ptx:30 skipping new declaration
GPGPU-Sim PTX: Warning %fd182 was declared previous at lavaMD-rodinia-3.1.sm_60.ptx:30 skipping new declaration
GPGPU-Sim PTX: Warning %fd183 was declared previous at lavaMD-rodinia-3.1.sm_60.ptx:30 skipping new declaration
GPGPU-Sim PTX: Warning %fd184 was declared previous at lavaMD-rodinia-3.1.sm_60.ptx:30 skipping new declaration
GPGPU-Sim PTX: Warning %fd185 was declared previous at lavaMD-rodinia-3.1.sm_60.ptx:30 skipping new declaration
GPGPU-Sim PTX: Warning %fd186 was declared previous at lavaMD-rodinia-3.1.sm_60.ptx:30 skipping new declaration
GPGPU-Sim PTX: Warning %fd187 was declared previous at lavaMD-rodinia-3.1.sm_60.ptx:30 skipping new declaration
GPGPU-Sim PTX: Warning %fd188 was declared previous at lavaMD-rodinia-3.1.sm_60.ptx:30 skipping new declaration
GPGPU-Sim PTX: Warning %fd189 was declared previous at lavaMD-rodinia-3.1.sm_60.ptx:30 skipping new declaration
GPGPU-Sim PTX: Warning %fd190 was declared previous at lavaMD-rodinia-3.1.sm_60.ptx:30 skipping new declaration
GPGPU-Sim PTX: Warning %fd191 was declared previous at lavaMD-rodinia-3.1.sm_60.ptx:30 skipping new declaration
GPGPU-Sim PTX: Warning %fd192 was declared previous at lavaMD-rodinia-3.1.sm_60.ptx:30 skipping new declaration
GPGPU-Sim PTX: Warning %fd193 was declared previous at lavaMD-rodinia-3.1.sm_60.ptx:30 skipping new declaration
GPGPU-Sim PTX: Warning %fd194 was declared previous at lavaMD-rodinia-3.1.sm_60.ptx:30 skipping new declaration
GPGPU-Sim PTX: Warning %fd195 was declared previous at lavaMD-rodinia-3.1.sm_60.ptx:30 skipping new declaration
GPGPU-Sim PTX: Warning %fd196 was declared previous at lavaMD-rodinia-3.1.sm_60.ptx:30 skipping new declaration
GPGPU-Sim PTX: Warning %fd197 was declared previous at lavaMD-rodinia-3.1.sm_60.ptx:30 skipping new declaration
GPGPU-Sim PTX: Warning %fd198 was declared previous at lavaMD-rodinia-3.1.sm_60.ptx:30 skipping new declaration
GPGPU-Sim PTX: Warning %fd199 was declared previous at lavaMD-rodinia-3.1.sm_60.ptx:30 skipping new declaration
GPGPU-Sim PTX: Warning %fd200 was declared previous at lavaMD-rodinia-3.1.sm_60.ptx:30 skipping new declaration
GPGPU-Sim PTX: Warning %fd201 was declared previous at lavaMD-rodinia-3.1.sm_60.ptx:30 skipping new declaration
GPGPU-Sim PTX: Warning %fd202 was declared previous at lavaMD-rodinia-3.1.sm_60.ptx:30 skipping new declaration
GPGPU-Sim PTX: Warning %fd203 was declared previous at lavaMD-rodinia-3.1.sm_60.ptx:30 skipping new declaration
GPGPU-Sim PTX: Warning %fd204 was declared previous at lavaMD-rodinia-3.1.sm_60.ptx:30 skipping new declaration
GPGPU-Sim PTX: Warning %fd205 was declared previous at lavaMD-rodinia-3.1.sm_60.ptx:30 skipping new declaration
GPGPU-Sim PTX: Warning %fd206 was declared previous at lavaMD-rodinia-3.1.sm_60.ptx:30 skipping new declaration
GPGPU-Sim PTX: Warning %rd0 was declared previous at lavaMD-rodinia-3.1.sm_60.ptx:31 skipping new declaration
GPGPU-Sim PTX: Warning %rd1 was declared previous at lavaMD-rodinia-3.1.sm_60.ptx:31 skipping new declaration
GPGPU-Sim PTX: Warning %rd2 was declared previous at lavaMD-rodinia-3.1.sm_60.ptx:31 skipping new declaration
GPGPU-Sim PTX: Warning %rd3 was declared previous at lavaMD-rodinia-3.1.sm_60.ptx:31 skipping new declaration
GPGPU-Sim PTX: Warning %rd4 was declared previous at lavaMD-rodinia-3.1.sm_60.ptx:31 skipping new declaration
GPGPU-Sim PTX: Warning %rd5 was declared previous at lavaMD-rodinia-3.1.sm_60.ptx:31 skipping new declaration
GPGPU-Sim PTX: Warning %rd6 was declared previous at lavaMD-rodinia-3.1.sm_60.ptx:31 skipping new declaration
GPGPU-Sim PTX: Warning %rd7 was declared previous at lavaMD-rodinia-3.1.sm_60.ptx:31 skipping new declaration
GPGPU-Sim PTX: Warning %rd8 was declared previous at lavaMD-rodinia-3.1.sm_60.ptx:31 skipping new declaration
GPGPU-Sim PTX: Warning %rd9 was declared previous at lavaMD-rodinia-3.1.sm_60.ptx:31 skipping new declaration
GPGPU-Sim PTX: Warning %rd10 was declared previous at lavaMD-rodinia-3.1.sm_60.ptx:31 skipping new declaration
GPGPU-Sim PTX: Warning %rd11 was declared previous at lavaMD-rodinia-3.1.sm_60.ptx:31 skipping new declaration
GPGPU-Sim PTX: Warning %rd12 was declared previous at lavaMD-rodinia-3.1.sm_60.ptx:31 skipping new declaration
GPGPU-Sim PTX: Warning %rd13 was declared previous at lavaMD-rodinia-3.1.sm_60.ptx:31 skipping new declaration
GPGPU-Sim PTX: Warning %rd14 was declared previous at lavaMD-rodinia-3.1.sm_60.ptx:31 skipping new declaration
GPGPU-Sim PTX: Warning %rd15 was declared previous at lavaMD-rodinia-3.1.sm_60.ptx:31 skipping new declaration
GPGPU-Sim PTX: Warning %rd16 was declared previous at lavaMD-rodinia-3.1.sm_60.ptx:31 skipping new declaration
GPGPU-Sim PTX: Warning %rd17 was declared previous at lavaMD-rodinia-3.1.sm_60.ptx:31 skipping new declaration
GPGPU-Sim PTX: Warning %rd18 was declared previous at lavaMD-rodinia-3.1.sm_60.ptx:31 skipping new declaration
GPGPU-Sim PTX: Warning %rd19 was declared previous at lavaMD-rodinia-3.1.sm_60.ptx:31 skipping new declaration
GPGPU-Sim PTX: Warning %rd20 was declared previous at lavaMD-rodinia-3.1.sm_60.ptx:31 skipping new declaration
GPGPU-Sim PTX: Warning %rd21 was declared previous at lavaMD-rodinia-3.1.sm_60.ptx:31 skipping new declaration
GPGPU-Sim PTX: Warning %rd22 was declared previous at lavaMD-rodinia-3.1.sm_60.ptx:31 skipping new declaration
GPGPU-Sim PTX: Warning %rd23 was declared previous at lavaMD-rodinia-3.1.sm_60.ptx:31 skipping new declaration
GPGPU-Sim PTX: Warning %rd24 was declared previous at lavaMD-rodinia-3.1.sm_60.ptx:31 skipping new declaration
GPGPU-Sim PTX: Warning %rd25 was declared previous at lavaMD-rodinia-3.1.sm_60.ptx:31 skipping new declaration
GPGPU-Sim PTX: Warning %rd26 was declared previous at lavaMD-rodinia-3.1.sm_60.ptx:31 skipping new declaration
GPGPU-Sim PTX: Warning %rd27 was declared previous at lavaMD-rodinia-3.1.sm_60.ptx:31 skipping new declaration
GPGPU-Sim PTX: Warning %rd28 was declared previous at lavaMD-rodinia-3.1.sm_60.ptx:31 skipping new declaration
GPGPU-Sim PTX: Warning %rd29 was declared previous at lavaMD-rodinia-3.1.sm_60.ptx:31 skipping new declaration
GPGPU-Sim PTX: Warning %rd30 was declared previous at lavaMD-rodinia-3.1.sm_60.ptx:31 skipping new declaration
GPGPU-Sim PTX: Warning %rd31 was declared previous at lavaMD-rodinia-3.1.sm_60.ptx:31 skipping new declaration
GPGPU-Sim PTX: Warning %rd32 was declared previous at lavaMD-rodinia-3.1.sm_60.ptx:31 skipping new declaration
GPGPU-Sim PTX: Warning %rd33 was declared previous at lavaMD-rodinia-3.1.sm_60.ptx:31 skipping new declaration
GPGPU-Sim PTX: Warning %rd34 was declared previous at lavaMD-rodinia-3.1.sm_60.ptx:31 skipping new declaration
GPGPU-Sim PTX: Warning %rd35 was declared previous at lavaMD-rodinia-3.1.sm_60.ptx:31 skipping new declaration
GPGPU-Sim PTX: Warning %rd36 was declared previous at lavaMD-rodinia-3.1.sm_60.ptx:31 skipping new declaration
GPGPU-Sim PTX: Warning %rd37 was declared previous at lavaMD-rodinia-3.1.sm_60.ptx:31 skipping new declaration
GPGPU-Sim PTX: Warning %rd38 was declared previous at lavaMD-rodinia-3.1.sm_60.ptx:31 skipping new declaration
GPGPU-Sim PTX: Warning %rd39 was declared previous at lavaMD-rodinia-3.1.sm_60.ptx:31 skipping new declaration
GPGPU-Sim PTX: Warning %rd40 was declared previous at lavaMD-rodinia-3.1.sm_60.ptx:31 skipping new declaration
GPGPU-Sim PTX: Warning %rd41 was declared previous at lavaMD-rodinia-3.1.sm_60.ptx:31 skipping new declaration
GPGPU-Sim PTX: Warning %rd42 was declared previous at lavaMD-rodinia-3.1.sm_60.ptx:31 skipping new declaration
GPGPU-Sim PTX: Warning %rd43 was declared previous at lavaMD-rodinia-3.1.sm_60.ptx:31 skipping new declaration
GPGPU-Sim PTX: Warning %rd44 was declared previous at lavaMD-rodinia-3.1.sm_60.ptx:31 skipping new declaration
GPGPU-Sim PTX: Warning %rd45 was declared previous at lavaMD-rodinia-3.1.sm_60.ptx:31 skipping new declaration
GPGPU-Sim PTX: Warning %rd46 was declared previous at lavaMD-rodinia-3.1.sm_60.ptx:31 skipping new declaration
GPGPU-Sim PTX: Warning %rd47 was declared previous at lavaMD-rodinia-3.1.sm_60.ptx:31 skipping new declaration
GPGPU-Sim PTX: Warning %rd48 was declared previous at lavaMD-rodinia-3.1.sm_60.ptx:31 skipping new declaration
GPGPU-Sim PTX: Warning %rd49 was declared previous at lavaMD-rodinia-3.1.sm_60.ptx:31 skipping new declaration
GPGPU-Sim PTX: Warning %rd50 was declared previous at lavaMD-rodinia-3.1.sm_60.ptx:31 skipping new declaration
GPGPU-Sim PTX: Warning %rd51 was declared previous at lavaMD-rodinia-3.1.sm_60.ptx:31 skipping new declaration
GPGPU-Sim PTX: Warning %rd52 was declared previous at lavaMD-rodinia-3.1.sm_60.ptx:31 skipping new declaration
GPGPU-Sim PTX: Warning %rd53 was declared previous at lavaMD-rodinia-3.1.sm_60.ptx:31 skipping new declaration
GPGPU-Sim PTX: Warning %rd54 was declared previous at lavaMD-rodinia-3.1.sm_60.ptx:31 skipping new declaration
GPGPU-Sim PTX: Warning %rd55 was declared previous at lavaMD-rodinia-3.1.sm_60.ptx:31 skipping new declaration
GPGPU-Sim PTX: Warning %rd56 was declared previous at lavaMD-rodinia-3.1.sm_60.ptx:31 skipping new declaration
GPGPU-Sim PTX: Warning %rd57 was declared previous at lavaMD-rodinia-3.1.sm_60.ptx:31 skipping new declaration
GPGPU-Sim PTX: Warning %rd58 was declared previous at lavaMD-rodinia-3.1.sm_60.ptx:31 skipping new declaration
GPGPU-Sim PTX: Warning %rd59 was declared previous at lavaMD-rodinia-3.1.sm_60.ptx:31 skipping new declaration
GPGPU-Sim PTX: Warning %rd60 was declared previous at lavaMD-rodinia-3.1.sm_60.ptx:31 skipping new declaration
GPGPU-Sim PTX: Warning %rd61 was declared previous at lavaMD-rodinia-3.1.sm_60.ptx:31 skipping new declaration
GPGPU-Sim PTX: Warning %rd62 was declared previous at lavaMD-rodinia-3.1.sm_60.ptx:31 skipping new declaration
GPGPU-Sim PTX: Warning _ZZ15kernel_gpu_cuda7par_str7dim_strP7box_strP11FOUR_VECTORPdS4_E9rA_shared was declared previous at lavaMD-rodinia-3.1.sm_60.ptx:33 skipping new declaration
GPGPU-Sim PTX: Warning _ZZ15kernel_gpu_cuda7par_str7dim_strP7box_strP11FOUR_VECTORPdS4_E9rB_shared was declared previous at lavaMD-rodinia-3.1.sm_60.ptx:35 skipping new declaration
GPGPU-Sim PTX: Warning _ZZ15kernel_gpu_cuda7par_str7dim_strP7box_strP11FOUR_VECTORPdS4_E9qB_shared was declared previous at lavaMD-rodinia-3.1.sm_60.ptx:37 skipping new declaration
GPGPU-Sim PTX: Warning -- ignoring pragma 'nounroll'
GPGPU-Sim PTX: instruction assembly for function '_Z15kernel_gpu_cuda7par_str7dim_strP7box_strP11FOUR_VECTORPdS4_'...   done.
GPGPU-Sim PTX: finished parsing EMBEDDED .ptx file lavaMD-rodinia-3.2.sm_62.ptx
GPGPU-Sim PTX: Parsing lavaMD-rodinia-3.6.sm_62.ptx
GPGPU-Sim PTX: finished parsing EMBEDDED .ptx file lavaMD-rodinia-3.6.sm_62.ptx
GPGPU-Sim PTX: Parsing lavaMD-rodinia-3.3.sm_70.ptx
GPGPU-Sim PTX: Warning %p0 was declared previous at lavaMD-rodinia-3.1.sm_60.ptx:27 skipping new declaration
GPGPU-Sim PTX: Warning %p1 was declared previous at lavaMD-rodinia-3.1.sm_60.ptx:27 skipping new declaration
GPGPU-Sim PTX: Warning %p2 was declared previous at lavaMD-rodinia-3.1.sm_60.ptx:27 skipping new declaration
GPGPU-Sim PTX: Warning %p3 was declared previous at lavaMD-rodinia-3.1.sm_60.ptx:27 skipping new declaration
GPGPU-Sim PTX: Warning %p4 was declared previous at lavaMD-rodinia-3.1.sm_60.ptx:27 skipping new declaration
GPGPU-Sim PTX: Warning %p5 was declared previous at lavaMD-rodinia-3.1.sm_60.ptx:27 skipping new declaration
GPGPU-Sim PTX: Warning %p6 was declared previous at lavaMD-rodinia-3.1.sm_60.ptx:27 skipping new declaration
GPGPU-Sim PTX: Warning %p7 was declared previous at lavaMD-rodinia-3.1.sm_60.ptx:27 skipping new declaration
GPGPU-Sim PTX: Warning %p8 was declared previous at lavaMD-rodinia-3.1.sm_60.ptx:27 skipping new declaration
GPGPU-Sim PTX: Warning %p9 was declared previous at lavaMD-rodinia-3.1.sm_60.ptx:27 skipping new declaration
GPGPU-Sim PTX: Warning %p10 was declared previous at lavaMD-rodinia-3.1.sm_60.ptx:27 skipping new declaration
GPGPU-Sim PTX: Warning %p11 was declared previous at lavaMD-rodinia-3.1.sm_60.ptx:27 skipping new declaration
GPGPU-Sim PTX: Warning %p12 was declared previous at lavaMD-rodinia-3.1.sm_60.ptx:27 skipping new declaration
GPGPU-Sim PTX: Warning %p13 was declared previous at lavaMD-rodinia-3.1.sm_60.ptx:27 skipping new declaration
GPGPU-Sim PTX: Warning %p14 was declared previous at lavaMD-rodinia-3.1.sm_60.ptx:27 skipping new declaration
GPGPU-Sim PTX: Warning %p15 was declared previous at lavaMD-rodinia-3.1.sm_60.ptx:27 skipping new declaration
GPGPU-Sim PTX: Warning %p16 was declared previous at lavaMD-rodinia-3.1.sm_60.ptx:27 skipping new declaration
GPGPU-Sim PTX: Warning %p17 was declared previous at lavaMD-rodinia-3.1.sm_60.ptx:27 skipping new declaration
GPGPU-Sim PTX: Warning %p18 was declared previous at lavaMD-rodinia-3.1.sm_60.ptx:27 skipping new declaration
GPGPU-Sim PTX: Warning %p19 was declared previous at lavaMD-rodinia-3.1.sm_60.ptx:27 skipping new declaration
GPGPU-Sim PTX: Warning %p20 was declared previous at lavaMD-rodinia-3.1.sm_60.ptx:27 skipping new declaration
GPGPU-Sim PTX: Warning %p21 was declared previous at lavaMD-rodinia-3.1.sm_60.ptx:27 skipping new declaration
GPGPU-Sim PTX: Warning %p22 was declared previous at lavaMD-rodinia-3.1.sm_60.ptx:27 skipping new declaration
GPGPU-Sim PTX: Warning %p23 was declared previous at lavaMD-rodinia-3.1.sm_60.ptx:27 skipping new declaration
GPGPU-Sim PTX: Warning %p24 was declared previous at lavaMD-rodinia-3.1.sm_60.ptx:27 skipping new declaration
GPGPU-Sim PTX: Warning %f0 was declared previous at lavaMD-rodinia-3.1.sm_60.ptx:28 skipping new declaration
GPGPU-Sim PTX: Warning %f1 was declared previous at lavaMD-rodinia-3.1.sm_60.ptx:28 skipping new declaration
GPGPU-Sim PTX: Warning %f2 was declared previous at lavaMD-rodinia-3.1.sm_60.ptx:28 skipping new declaration
GPGPU-Sim PTX: Warning %f3 was declared previous at lavaMD-rodinia-3.1.sm_60.ptx:28 skipping new declaration
GPGPU-Sim PTX: Warning %f4 was declared previous at lavaMD-rodinia-3.1.sm_60.ptx:28 skipping new declaration
GPGPU-Sim PTX: Warning %r0 was declared previous at lavaMD-rodinia-3.1.sm_60.ptx:29 skipping new declaration
GPGPU-Sim PTX: Warning %r1 was declared previous at lavaMD-rodinia-3.1.sm_60.ptx:29 skipping new declaration
GPGPU-Sim PTX: Warning %r2 was declared previous at lavaMD-rodinia-3.1.sm_60.ptx:29 skipping new declaration
GPGPU-Sim PTX: Warning %r3 was declared previous at lavaMD-rodinia-3.1.sm_60.ptx:29 skipping new declaration
GPGPU-Sim PTX: Warning %r4 was declared previous at lavaMD-rodinia-3.1.sm_60.ptx:29 skipping new declaration
GPGPU-Sim PTX: Warning %r5 was declared previous at lavaMD-rodinia-3.1.sm_60.ptx:29 skipping new declaration
GPGPU-Sim PTX: Warning %r6 was declared previous at lavaMD-rodinia-3.1.sm_60.ptx:29 skipping new declaration
GPGPU-Sim PTX: Warning %r7 was declared previous at lavaMD-rodinia-3.1.sm_60.ptx:29 skipping new declaration
GPGPU-Sim PTX: Warning %r8 was declared previous at lavaMD-rodinia-3.1.sm_60.ptx:29 skipping new declaration
GPGPU-Sim PTX: Warning %r9 was declared previous at lavaMD-rodinia-3.1.sm_60.ptx:29 skipping new declaration
GPGPU-Sim PTX: Warning %r10 was declared previous at lavaMD-rodinia-3.1.sm_60.ptx:29 skipping new declaration
GPGPU-Sim PTX: Warning %r11 was declared previous at lavaMD-rodinia-3.1.sm_60.ptx:29 skipping new declaration
GPGPU-Sim PTX: Warning %r12 was declared previous at lavaMD-rodinia-3.1.sm_60.ptx:29 skipping new declaration
GPGPU-Sim PTX: Warning %r13 was declared previous at lavaMD-rodinia-3.1.sm_60.ptx:29 skipping new declaration
GPGPU-Sim PTX: Warning %r14 was declared previous at lavaMD-rodinia-3.1.sm_60.ptx:29 skipping new declaration
GPGPU-Sim PTX: Warning %r15 was declared previous at lavaMD-rodinia-3.1.sm_60.ptx:29 skipping new declaration
GPGPU-Sim PTX: Warning %r16 was declared previous at lavaMD-rodinia-3.1.sm_60.ptx:29 skipping new declaration
GPGPU-Sim PTX: Warning %r17 was declared previous at lavaMD-rodinia-3.1.sm_60.ptx:29 skipping new declaration
GPGPU-Sim PTX: Warning %r18 was declared previous at lavaMD-rodinia-3.1.sm_60.ptx:29 skipping new declaration
GPGPU-Sim PTX: Warning %r19 was declared previous at lavaMD-rodinia-3.1.sm_60.ptx:29 skipping new declaration
GPGPU-Sim PTX: Warning %r20 was declared previous at lavaMD-rodinia-3.1.sm_60.ptx:29 skipping new declaration
GPGPU-Sim PTX: Warning %r21 was declared previous at lavaMD-rodinia-3.1.sm_60.ptx:29 skipping new declaration
[...]
L2_cache_bank[36]: Access = 30440, Miss = 1071, Miss_rate = 0.035, Pending_hits = 0, Reservation_fails = 0
L2_cache_bank[37]: Access = 30281, Miss = 1037, Miss_rate = 0.034, Pending_hits = 0, Reservation_fails = 0
L2_cache_bank[38]: Access = 30407, Miss = 1049, Miss_rate = 0.034, Pending_hits = 0, Reservation_fails = 0
L2_cache_bank[39]: Access = 30307, Miss = 1063, Miss_rate = 0.035, Pending_hits = 0, Reservation_fails = 0
L2_cache_bank[40]: Access = 30372, Miss = 1093, Miss_rate = 0.036, Pending_hits = 0, Reservation_fails = 0
L2_cache_bank[41]: Access = 30372, Miss = 1022, Miss_rate = 0.034, Pending_hits = 0, Reservation_fails = 0
L2_cache_bank[42]: Access = 30305, Miss = 1023, Miss_rate = 0.034, Pending_hits = 0, Reservation_fails = 0
L2_cache_bank[43]: Access = 30428, Miss = 1070, Miss_rate = 0.035, Pending_hits = 0, Reservation_fails = 0
L2_cache_bank[44]: Access = 30189, Miss = 1029, Miss_rate = 0.034, Pending_hits = 0, Reservation_fails = 0
L2_cache_bank[45]: Access = 30382, Miss = 1066, Miss_rate = 0.035, Pending_hits = 0, Reservation_fails = 0
L2_cache_bank[46]: Access = 30385, Miss = 1066, Miss_rate = 0.035, Pending_hits = 0, Reservation_fails = 0
L2_cache_bank[47]: Access = 30308, Miss = 1037, Miss_rate = 0.034, Pending_hits = 0, Reservation_fails = 0
L2_cache_bank[48]: Access = 30757, Miss = 1057, Miss_rate = 0.034, Pending_hits = 0, Reservation_fails = 0
L2_cache_bank[49]: Access = 30301, Miss = 1066, Miss_rate = 0.035, Pending_hits = 0, Reservation_fails = 0
L2_cache_bank[50]: Access = 30767, Miss = 1059, Miss_rate = 0.034, Pending_hits = 0, Reservation_fails = 0
L2_cache_bank[51]: Access = 30252, Miss = 1042, Miss_rate = 0.034, Pending_hits = 0, Reservation_fails = 0
L2_cache_bank[52]: Access = 30816, Miss = 1051, Miss_rate = 0.034, Pending_hits = 0, Reservation_fails = 0
L2_cache_bank[53]: Access = 30315, Miss = 1067, Miss_rate = 0.035, Pending_hits = 0, Reservation_fails = 0
L2_cache_bank[54]: Access = 30815, Miss = 1093, Miss_rate = 0.035, Pending_hits = 0, Reservation_fails = 0
L2_cache_bank[55]: Access = 30326, Miss = 1044, Miss_rate = 0.034, Pending_hits = 0, Reservation_fails = 0
L2_cache_bank[56]: Access = 30548, Miss = 1071, Miss_rate = 0.035, Pending_hits = 0, Reservation_fails = 0
L2_cache_bank[57]: Access = 30501, Miss = 1042, Miss_rate = 0.034, Pending_hits = 0, Reservation_fails = 0
L2_cache_bank[58]: Access = 30535, Miss = 1067, Miss_rate = 0.035, Pending_hits = 0, Reservation_fails = 0
L2_cache_bank[59]: Access = 30507, Miss = 1053, Miss_rate = 0.035, Pending_hits = 0, Reservation_fails = 0
L2_cache_bank[60]: Access = 30450, Miss = 1065, Miss_rate = 0.035, Pending_hits = 0, Reservation_fails = 0
L2_cache_bank[61]: Access = 30456, Miss = 1040, Miss_rate = 0.034, Pending_hits = 0, Reservation_fails = 0
L2_cache_bank[62]: Access = 30559, Miss = 1063, Miss_rate = 0.035, Pending_hits = 0, Reservation_fails = 0
L2_cache_bank[63]: Access = 30496, Miss = 1073, Miss_rate = 0.035, Pending_hits = 0, Reservation_fails = 0
L2_total_cache_accesses = 1949273
L2_total_cache_misses = 67468
L2_total_cache_miss_rate = 0.0346
L2_total_cache_pending_hits = 0
L2_total_cache_reservation_fails = 0
L2_total_cache_breakdown:
	L2_cache_stats_breakdown[GLOBAL_ACC_R][HIT] = 729805
	L2_cache_stats_breakdown[GLOBAL_ACC_R][HIT_RESERVED] = 0
	L2_cache_stats_breakdown[GLOBAL_ACC_R][MISS] = 17347
	L2_cache_stats_breakdown[GLOBAL_ACC_R][RESERVATION_FAIL] = 0
	L2_cache_stats_breakdown[GLOBAL_ACC_R][SECTOR_MISS] = 50121
	L2_cache_stats_breakdown[LOCAL_ACC_R][HIT] = 0
	L2_cache_stats_breakdown[LOCAL_ACC_R][HIT_RESERVED] = 0
	L2_cache_stats_breakdown[LOCAL_ACC_R][MISS] = 0
	L2_cache_stats_breakdown[LOCAL_ACC_R][RESERVATION_FAIL] = 0
	L2_cache_stats_breakdown[LOCAL_ACC_R][SECTOR_MISS] = 0
	L2_cache_stats_breakdown[CONST_ACC_R][HIT] = 0
	L2_cache_stats_breakdown[CONST_ACC_R][HIT_RESERVED] = 0
	L2_cache_stats_breakdown[CONST_ACC_R][MISS] = 0
	L2_cache_stats_breakdown[CONST_ACC_R][RESERVATION_FAIL] = 0
	L2_cache_stats_breakdown[CONST_ACC_R][SECTOR_MISS] = 0
	L2_cache_stats_breakdown[TEXTURE_ACC_R][HIT] = 0
	L2_cache_stats_breakdown[TEXTURE_ACC_R][HIT_RESERVED] = 0
	L2_cache_stats_breakdown[TEXTURE_ACC_R][MISS] = 0
	L2_cache_stats_breakdown[TEXTURE_ACC_R][RESERVATION_FAIL] = 0
	L2_cache_stats_breakdown[TEXTURE_ACC_R][SECTOR_MISS] = 0
	L2_cache_stats_breakdown[GLOBAL_ACC_W][HIT] = 1152000
	L2_cache_stats_breakdown[GLOBAL_ACC_W][HIT_RESERVED] = 0
	L2_cache_stats_breakdown[GLOBAL_ACC_W][MISS] = 0
	L2_cache_stats_breakdown[GLOBAL_ACC_W][RESERVATION_FAIL] = 0
	L2_cache_stats_breakdown[GLOBAL_ACC_W][SECTOR_MISS] = 0
	L2_cache_stats_breakdown[LOCAL_ACC_W][HIT] = 0
	L2_cache_stats_breakdown[LOCAL_ACC_W][HIT_RESERVED] = 0
	L2_cache_stats_breakdown[LOCAL_ACC_W][MISS] = 0
	L2_cache_stats_breakdown[LOCAL_ACC_W][RESERVATION_FAIL] = 0
	L2_cache_stats_breakdown[LOCAL_ACC_W][SECTOR_MISS] = 0
	L2_cache_stats_breakdown[L1_WRBK_ACC][HIT] = 0
	L2_cache_stats_breakdown[L1_WRBK_ACC][HIT_RESERVED] = 0
	L2_cache_stats_breakdown[L1_WRBK_ACC][MISS] = 0
	L2_cache_stats_breakdown[L1_WRBK_ACC][RESERVATION_FAIL] = 0
	L2_cache_stats_breakdown[L1_WRBK_ACC][SECTOR_MISS] = 0
	L2_cache_stats_breakdown[L2_WRBK_ACC][HIT] = 0
	L2_cache_stats_breakdown[L2_WRBK_ACC][HIT_RESERVED] = 0
	L2_cache_stats_breakdown[L2_WRBK_ACC][MISS] = 0
	L2_cache_stats_breakdown[L2_WRBK_ACC][RESERVATION_FAIL] = 0
	L2_cache_stats_breakdown[L2_WRBK_ACC][SECTOR_MISS] = 0
	L2_cache_stats_breakdown[INST_ACC_R][HIT] = 0
	L2_cache_stats_breakdown[INST_ACC_R][HIT_RESERVED] = 0
	L2_cache_stats_breakdown[INST_ACC_R][MISS] = 0
	L2_cache_stats_breakdown[INST_ACC_R][RESERVATION_FAIL] = 0
	L2_cache_stats_breakdown[INST_ACC_R][SECTOR_MISS] = 0
	L2_cache_stats_breakdown[L1_WR_ALLOC_R][HIT] = 0
	L2_cache_stats_breakdown[L1_WR_ALLOC_R][HIT_RESERVED] = 0
	L2_cache_stats_breakdown[L1_WR_ALLOC_R][MISS] = 0
	L2_cache_stats_breakdown[L1_WR_ALLOC_R][RESERVATION_FAIL] = 0
	L2_cache_stats_breakdown[L1_WR_ALLOC_R][SECTOR_MISS] = 0
	L2_cache_stats_breakdown[L2_WR_ALLOC_R][HIT] = 0
	L2_cache_stats_breakdown[L2_WR_ALLOC_R][HIT_RESERVED] = 0
	L2_cache_stats_breakdown[L2_WR_ALLOC_R][MISS] = 0
	L2_cache_stats_breakdown[L2_WR_ALLOC_R][RESERVATION_FAIL] = 0
	L2_cache_stats_breakdown[L2_WR_ALLOC_R][SECTOR_MISS] = 0
	L2_cache_stats_breakdown[GLOBAL_ACC_R][TOTAL_ACCESS] = 797273
	L2_cache_stats_breakdown[GLOBAL_ACC_W][TOTAL_ACCESS] = 1152000
L2_total_cache_reservation_fail_breakdown:
L2_cache_data_port_util = 0.091
L2_cache_fill_port_util = 0.003

========= compression stats =========

m_cycle_huffman_generated = 15000

 m_partition 0: total number of compression requests = 69, total raw compression ratio = 1.769249, total effective compression ratio = 1.352657
 -- interval 0: number of compression requests = 4, raw compression ratio = 1.477633, effective compression ratio = 1.333333
 -- interval 1: number of compression requests = 0, raw compression ratio = 0.000000, effective compression ratio = 0.000000
 -- interval 2: number of compression requests = 0, raw compression ratio = 0.000000, effective compression ratio = 0.000000
 -- interval 3: number of compression requests = 0, raw compression ratio = 0.000000, effective compression ratio = 0.000000
 -- interval 4: number of compression requests = 0, raw compression ratio = 0.000000, effective compression ratio = 0.000000
 -- interval 5: number of compression requests = 0, raw compression ratio = 0.000000, effective compression ratio = 0.000000
 -- interval 6: number of compression requests = 1, raw compression ratio = 2.031746, effective compression ratio = 2.000000
 -- interval 7: number of compression requests = 1, raw compression ratio = 1.667752, effective compression ratio = 1.333333
 -- interval 8: number of compression requests = 1, raw compression ratio = 1.750427, effective compression ratio = 1.333333
 -- interval 9: number of compression requests = 0, raw compression ratio = 0.000000, effective compression ratio = 0.000000
 -- interval 10: number of compression requests = 2, raw compression ratio = 1.611450, effective compression ratio = 1.333333
 -- interval 11: number of compression requests = 0, raw compression ratio = 0.000000, effective compression ratio = 0.000000
 -- interval 12: number of compression requests = 1, raw compression ratio = 1.848375, effective compression ratio = 1.333333
 -- interval 13: number of compression requests = 3, raw compression ratio = 1.880455, effective compression ratio = 1.555556
 -- interval 14: number of compression requests = 3, raw compression ratio = 1.886059, effective compression ratio = 1.333333
 -- interval 15: number of compression requests = 3, raw compression ratio = 1.750535, effective compression ratio = 1.333333
 -- interval 16: number of compression requests = 2, raw compression ratio = 1.704398, effective compression ratio = 1.333333
 -- interval 17: number of compression requests = 4, raw compression ratio = 1.701709, effective compression ratio = 1.333333
 -- interval 18: number of compression requests = 0, raw compression ratio = 0.000000, effective compression ratio = 0.000000
 -- interval 19: number of compression requests = 0, raw compression ratio = 0.000000, effective compression ratio = 0.000000
 -- interval 20: number of compression requests = 2, raw compression ratio = 1.630838, effective compression ratio = 1.333333
 -- interval 21: number of compression requests = 2, raw compression ratio = 1.846782, effective compression ratio = 1.333333
 -- interval 22: number of compression requests = 3, raw compression ratio = 1.810879, effective compression ratio = 1.333333
 -- interval 23: number of compression requests = 0, raw compression ratio = 0.000000, effective compression ratio = 0.000000
 -- interval 24: number of compression requests = 0, raw compression ratio = 0.000000, effective compression ratio = 0.000000
 -- interval 25: number of compression requests = 3, raw compression ratio = 1.738357, effective compression ratio = 1.333333
 -- interval 26: number of compression requests = 3, raw compression ratio = 1.645865, effective compression ratio = 1.333333
 -- interval 27: number of compression requests = 0, raw compression ratio = 0.000000, effective compression ratio = 0.000000
 -- interval 28: number of compression requests = 0, raw compression ratio = 0.000000, effective compression ratio = 0.000000
 -- interval 29: number of compression requests = 3, raw compression ratio = 1.888493, effective compression ratio = 1.333333
 -- interval 30: number of compression requests = 4, raw compression ratio = 1.885041, effective compression ratio = 1.333333
 -- interval 31: number of compression requests = 2, raw compression ratio = 1.796497, effective compression ratio = 1.333333
 -- interval 32: number of compression requests = 1, raw compression ratio = 1.812389, effective compression ratio = 1.333333
 -- interval 33: number of compression requests = 0, raw compression ratio = 0.000000, effective compression ratio = 0.000000
 -- interval 34: number of compression requests = 0, raw compression ratio = 0.000000, effective compression ratio = 0.000000
 -- interval 35: number of compression requests = 6, raw compression ratio = 1.746606, effective compression ratio = 1.333333
 -- interval 36: number of compression requests = 1, raw compression ratio = 1.828571, effective compression ratio = 1.333333
 -- interval 37: number of compression requests = 5, raw compression ratio = 1.799378, effective compression ratio = 1.333333
 -- interval 38: number of compression requests = 0, raw compression ratio = 0.000000, effective compression ratio = 0.000000
 -- interval 39: number of compression requests = 1, raw compression ratio = 1.756432, effective compression ratio = 1.333333
 -- interval 40: number of compression requests = 2, raw compression ratio = 1.740682, effective compression ratio = 1.333333
 -- interval 41: number of compression requests = 0, raw compression ratio = 0.000000, effective compression ratio = 0.000000
 -- interval 42: number of compression requests = 0, raw compression ratio = 0.000000, effective compression ratio = 0.000000
 -- interval 43: number of compression requests = 0, raw compression ratio = 0.000000, effective compression ratio = 0.000000
 -- interval 44: number of compression requests = 2, raw compression ratio = 1.850119, effective compression ratio = 1.333333
 -- interval 45: number of compression requests = 4, raw compression ratio = 1.871232, effective compression ratio = 1.333333
 -- interval 46: number of compression requests = 0, raw compression ratio = 0.000000, effective compression ratio = 0.000000

m_cycle_huffman_generated = 15000

 m_partition 1: total number of compression requests = 70, total raw compression ratio = 1.800627, total effective compression ratio = 1.371429

m_cycle_huffman_generated = 15000

 m_partition 2: total number of compression requests = 69, total raw compression ratio = 1.774871, total effective compression ratio = 1.362319

m_cycle_huffman_generated = 15000

 m_partition 3: total number of compression requests = 78, total raw compression ratio = 1.783156, total effective compression ratio = 1.376068

m_cycle_huffman_generated = 15000

 m_partition 4: total number of compression requests = 67, total raw compression ratio = 1.795986, total effective compression ratio = 1.412935

m_cycle_huffman_generated = 15000

 m_partition 5: total number of compression requests = 72, total raw compression ratio = 1.753788, total effective compression ratio = 1.379630

m_cycle_huffman_generated = 15000

 m_partition 6: total number of compression requests = 77, total raw compression ratio = 1.746828, total effective compression ratio = 1.359307

m_cycle_huffman_generated = 15000

 m_partition 7: total number of compression requests = 68, total raw compression ratio = 1.823690, total effective compression ratio = 1.401961

m_cycle_huffman_generated = 15000

 m_partition 8: total number of compression requests = 82, total raw compression ratio = 1.763330, total effective compression ratio = 1.365854

m_cycle_huffman_generated = 15000

 m_partition 9: total number of compression requests = 72, total raw compression ratio = 1.730975, total effective compression ratio = 1.342593

m_cycle_huffman_generated = 15000

 m_partition 10: total number of compression requests = 67, total raw compression ratio = 1.723774, total effective compression ratio = 1.383085

m_cycle_huffman_generated = 15000

 m_partition 11: total number of compression requests = 69, total raw compression ratio = 1.801556, total effective compression ratio = 1.410628

m_cycle_huffman_generated = 15000

 m_partition 12: total number of compression requests = 71, total raw compression ratio = 1.744967, total effective compression ratio = 1.370892

m_cycle_huffman_generated = 15000

 m_partition 13: total number of compression requests = 69, total raw compression ratio = 1.765491, total effective compression ratio = 1.362319

m_cycle_huffman_generated = 15000

 m_partition 14: total number of compression requests = 66, total raw compression ratio = 1.802726, total effective compression ratio = 1.404040

m_cycle_huffman_generated = 15000

 m_partition 15: total number of compression requests = 69, total raw compression ratio = 1.732524, total effective compression ratio = 1.352657

m_cycle_huffman_generated = 15000

 m_partition 16: total number of compression requests = 74, total raw compression ratio = 1.727746, total effective compression ratio = 1.360360

m_cycle_huffman_generated = 15000

 m_partition 17: total number of compression requests = 85, total raw compression ratio = 1.722784, total effective compression ratio = 1.364706

m_cycle_huffman_generated = 15000

 m_partition 18: total number of compression requests = 79, total raw compression ratio = 1.753594, total effective compression ratio = 1.375527

m_cycle_huffman_generated = 15000

 m_partition 19: total number of compression requests = 79, total raw compression ratio = 1.736925, total effective compression ratio = 1.350211

m_cycle_huffman_generated = 15000

 m_partition 20: total number of compression requests = 77, total raw compression ratio = 1.763731, total effective compression ratio = 1.367965

m_cycle_huffman_generated = 15000

 m_partition 21: total number of compression requests = 69, total raw compression ratio = 1.762280, total effective compression ratio = 1.342995

m_cycle_huffman_generated = 15000

 m_partition 22: total number of compression requests = 72, total raw compression ratio = 1.730549, total effective compression ratio = 1.361111

m_cycle_huffman_generated = 15000

 m_partition 23: total number of compression requests = 80, total raw compression ratio = 1.759432, total effective compression ratio = 1.350000

m_cycle_huffman_generated = 15000

 m_partition 24: total number of compression requests = 78, total raw compression ratio = 1.776158, total effective compression ratio = 1.384615

m_cycle_huffman_generated = 15000

 m_partition 25: total number of compression requests = 72, total raw compression ratio = 1.773535, total effective compression ratio = 1.379630

m_cycle_huffman_generated = 15000

 m_partition 26: total number of compression requests = 75, total raw compression ratio = 1.733710, total effective compression ratio = 1.351111

m_cycle_huffman_generated = 15000

 m_partition 27: total number of compression requests = 88, total raw compression ratio = 1.737075, total effective compression ratio = 1.348485

m_cycle_huffman_generated = 15000

 m_partition 28: total number of compression requests = 70, total raw compression ratio = 1.756052, total effective compression ratio = 1.361905

m_cycle_huffman_generated = 15000

 m_partition 29: total number of compression requests = 73, total raw compression ratio = 1.776423, total effective compression ratio = 1.360731

m_cycle_huffman_generated = 15000

 m_partition 30: total number of compression requests = 77, total raw compression ratio = 1.765848, total effective compression ratio = 1.359307

m_cycle_huffman_generated = 15000

 m_partition 31: total number of compression requests = 70, total raw compression ratio = 1.750955, total effective compression ratio = 1.342857

 total number of compression requests = 2353, average raw compression ratio = 1.760635, average effective compression ratio = 1.367809

icnt_total_pkts_mem_to_simt=1949273
icnt_total_pkts_simt_to_mem=1949273
LD_mem_lat_dist  0 0 0 0 0 0 0 0 0 0 0 0 0 0 0 0 0 0 0 0 0 0 0 0 0 0 0
ST_mem_lat_dist  0 0 0 0 0 0 0 0 0 0 0 0 0 0 0 0 0 0 0 0 0 0 0 0 0 0 0
----------------------------Interconnect-DETAILS--------------------------------
Req_Network_injected_packets_num = 1949273
Req_Network_cycles = 321859
Req_Network_injected_packets_per_cycle =       6.0563 
Req_Network_conflicts_per_cycle =       2.2598
Req_Network_conflicts_per_cycle_util =       4.6762
Req_Bank_Level_Parallism =      12.5321
Req_Network_in_buffer_full_per_cycle =       0.0000
Req_Network_in_buffer_avg_util =       2.4251
Req_Network_out_buffer_full_per_cycle =       0.0000
Req_Network_out_buffer_avg_util =       0.0946

Reply_Network_injected_packets_num = 1949273
Reply_Network_cycles = 321859
Reply_Network_injected_packets_per_cycle =        6.0563
Reply_Network_conflicts_per_cycle =        1.1508
Reply_Network_conflicts_per_cycle_util =       2.3813
Reply_Bank_Level_Parallism =      12.5317
Reply_Network_in_buffer_full_per_cycle =       0.0000
Reply_Network_in_buffer_avg_util =       0.0849
Reply_Network_out_buffer_full_per_cycle =       0.0000
Reply_Network_out_buffer_avg_util =       0.0757
----------------------------END-of-Interconnect-DETAILS-------------------------


gpgpu_simulation_time = 0 days, 0 hrs, 30 min, 59 sec (1859 sec)
gpgpu_simulation_rate = 1075850 (inst/sec)
gpgpu_simulation_rate = 173 (cycle/sec)
gpgpu_silicon_slowdown = 6543352x
GPGPU-Sim: *** simulation thread exiting ***
GPGPU-Sim: ** break due to reaching the maximum cycles (or instructions) **
GPGPU-Sim: *** exit detected ***
